<?xml version="1.0" encoding="UTF-8"?>

<!-- generated on 2021-11-30 14:41:51 by Eclipse SUMO netgenerate Version 1.9.2
<configuration xmlns:xsi="http://www.w3.org/2001/XMLSchema-instance" xsi:noNamespaceSchemaLocation="http://sumo.dlr.de/xsd/netgenerateConfiguration.xsd">

    <spider_network>
        <spider value="true"/>
        <spider.arm-number value="20"/>
        <spider.circle-number value="10"/>
        <spider.space-radius value="200"/>
        <spider.omit-center value="true"/>
    </spider_network>

    <output>
        <output-file value="SpiderNet.net.xml"/>
    </output>

    <building_defaults>
        <default-junction-type value="traffic_light"/>
    </building_defaults>

    <junctions>
        <no-turnarounds value="true"/>
    </junctions>

</configuration>
-->

<net version="1.9" junctionCornerDetail="5" limitTurnSpeed="5.50" xmlns:xsi="http://www.w3.org/2001/XMLSchema-instance" xsi:noNamespaceSchemaLocation="http://sumo.dlr.de/xsd/net_file.xsd">

    <location netOffset="2000.00,2000.00" convBoundary="0.00,0.00,4000.00,4000.00" origBoundary="-2000.00,-2000.00,2000.00,2000.00" projParameter="!"/>

    <edge id=":B1_0" function="internal">
        <lane id=":B1_0_0" index="0" speed="6.54" length="8.04" shape="2206.15,2001.60 2204.01,2001.90 2202.38,2002.78 2201.24,2004.26 2200.62,2006.32"/>
    </edge>
    <edge id=":B1_1" function="internal">
        <lane id=":B1_1_0" index="0" speed="8.04" length="12.63" shape="2206.15,2001.60 2202.79,2001.14 2200.22,1999.74 2198.44,1997.42 2197.46,1994.18"/>
    </edge>
    <edge id=":B1_2" function="internal">
        <lane id=":B1_2_0" index="0" speed="6.54" length="8.04" shape="2200.62,1993.68 2201.24,1995.74 2202.38,1997.22 2204.01,1998.10 2206.15,1998.40"/>
    </edge>
    <edge id=":B1_3" function="internal">
        <lane id=":B1_3_0" index="0" speed="13.89" length="12.71" shape="2200.62,1993.68 2201.06,1997.04 2201.20,2000.00 2201.06,2002.96 2200.62,2006.32"/>
    </edge>
    <edge id=":B1_4" function="internal">
        <lane id=":B1_4_0" index="0" speed="13.89" length="11.72" shape="2197.46,2005.82 2197.90,2002.61 2198.04,2000.00 2197.90,1997.39 2197.46,1994.18"/>
    </edge>
    <edge id=":B1_5" function="internal">
        <lane id=":B1_5_0" index="0" speed="8.04" length="5.21" shape="2197.46,2005.82 2198.44,2002.58 2199.55,2001.13"/>
    </edge>
    <edge id=":B1_6" function="internal">
        <lane id=":B1_6_0" index="0" speed="8.04" length="7.42" shape="2199.55,2001.13 2200.22,2000.26 2202.79,1998.86 2206.15,1998.40"/>
    </edge>
    <edge id=":B10_0" function="internal">
        <lane id=":B10_0_0" index="0" speed="6.54" length="8.04" shape="1811.15,2068.01 1809.92,2066.24 1808.39,2065.18 1806.56,2064.85 1804.43,2065.23"/>
    </edge>
    <edge id=":B10_1" function="internal">
        <lane id=":B10_1_0" index="0" speed="13.89" length="12.71" shape="1811.15,2068.01 1809.70,2064.94 1808.64,2062.18 1807.87,2059.32 1807.25,2055.98"/>
    </edge>
    <edge id=":B10_2" function="internal">
        <lane id=":B10_2_0" index="0" speed="13.89" length="11.72" shape="1810.41,2055.48 1810.98,2058.67 1811.65,2061.20 1812.60,2063.64 1814.01,2066.56"/>
    </edge>
    <edge id=":B10_3" function="internal">
        <lane id=":B10_3_0" index="0" speed="8.04" length="5.21" shape="1810.41,2055.48 1810.47,2058.87 1809.87,2060.59"/>
    </edge>
    <edge id=":B10_6" function="internal">
        <lane id=":B10_6_0" index="0" speed="8.04" length="7.42" shape="1809.87,2060.59 1809.50,2061.63 1807.49,2063.75 1804.43,2065.23"/>
    </edge>
    <edge id=":B10_4" function="internal">
        <lane id=":B10_4_0" index="0" speed="6.54" length="8.04" shape="1803.45,2062.18 1805.39,2061.24 1806.67,2059.89 1807.29,2058.14 1807.25,2055.98"/>
    </edge>
    <edge id=":B10_5" function="internal">
        <lane id=":B10_5_0" index="0" speed="8.04" length="12.63" shape="1803.45,2062.18 1806.79,2061.58 1809.66,2062.11 1812.07,2063.77 1814.01,2066.56"/>
    </edge>
    <edge id=":B11_0" function="internal">
        <lane id=":B11_0_0" index="0" speed="6.54" length="8.04" shape="1799.38,2006.32 1798.76,2004.26 1797.62,2002.78 1795.99,2001.90 1793.85,2001.60"/>
    </edge>
    <edge id=":B11_1" function="internal">
        <lane id=":B11_1_0" index="0" speed="13.89" length="12.71" shape="1799.38,2006.32 1798.94,2002.96 1798.80,2000.00 1798.94,1997.04 1799.38,1993.68"/>
    </edge>
    <edge id=":B11_2" function="internal">
        <lane id=":B11_2_0" index="0" speed="13.89" length="11.72" shape="1802.54,1994.18 1802.10,1997.39 1801.96,2000.00 1802.10,2002.61 1802.54,2005.82"/>
    </edge>
    <edge id=":B11_3" function="internal">
        <lane id=":B11_3_0" index="0" speed="8.04" length="5.21" shape="1802.54,1994.18 1801.56,1997.42 1800.45,1998.87"/>
    </edge>
    <edge id=":B11_6" function="internal">
        <lane id=":B11_6_0" index="0" speed="8.04" length="7.42" shape="1800.45,1998.87 1799.78,1999.74 1797.21,2001.14 1793.85,2001.60"/>
    </edge>
    <edge id=":B11_4" function="internal">
        <lane id=":B11_4_0" index="0" speed="6.54" length="8.04" shape="1793.85,1998.40 1795.99,1998.10 1797.62,1997.22 1798.76,1995.74 1799.38,1993.68"/>
    </edge>
    <edge id=":B11_5" function="internal">
        <lane id=":B11_5_0" index="0" speed="8.04" length="12.63" shape="1793.85,1998.40 1797.21,1998.86 1799.78,2000.26 1801.56,2002.58 1802.54,2005.82"/>
    </edge>
    <edge id=":B12_0" function="internal">
        <lane id=":B12_0_0" index="0" speed="13.89" length="11.72" shape="1814.01,1933.44 1812.60,1936.36 1811.65,1938.80 1810.98,1941.33 1810.41,1944.52"/>
    </edge>
    <edge id=":B12_1" function="internal">
        <lane id=":B12_1_0" index="0" speed="8.04" length="5.21" shape="1814.01,1933.44 1812.07,1936.23 1810.57,1937.26"/>
    </edge>
    <edge id=":B12_6" function="internal">
        <lane id=":B12_6_0" index="0" speed="8.04" length="7.42" shape="1810.57,1937.26 1809.66,1937.89 1806.79,1938.42 1803.45,1937.82"/>
    </edge>
    <edge id=":B12_2" function="internal">
        <lane id=":B12_2_0" index="0" speed="6.54" length="8.04" shape="1804.43,1934.77 1806.56,1935.15 1808.39,1934.82 1809.92,1933.76 1811.15,1931.99"/>
    </edge>
    <edge id=":B12_3" function="internal">
        <lane id=":B12_3_0" index="0" speed="8.04" length="12.63" shape="1804.43,1934.77 1807.49,1936.25 1809.50,1938.37 1810.47,1941.13 1810.41,1944.52"/>
    </edge>
    <edge id=":B12_4" function="internal">
        <lane id=":B12_4_0" index="0" speed="6.54" length="8.04" shape="1807.25,1944.02 1807.29,1941.86 1806.67,1940.11 1805.39,1938.76 1803.45,1937.82"/>
    </edge>
    <edge id=":B12_5" function="internal">
        <lane id=":B12_5_0" index="0" speed="13.89" length="12.71" shape="1807.25,1944.02 1807.87,1940.68 1808.64,1937.82 1809.70,1935.06 1811.15,1931.99"/>
    </edge>
    <edge id=":B13_0" function="internal">
        <lane id=":B13_0_0" index="0" speed="13.89" length="11.72" shape="1843.68,1879.23 1841.43,1881.56 1839.78,1883.59 1838.36,1885.79 1836.83,1888.65"/>
    </edge>
    <edge id=":B13_1" function="internal">
        <lane id=":B13_1_0" index="0" speed="8.04" length="5.21" shape="1843.68,1879.23 1840.97,1881.28 1839.23,1881.79"/>
    </edge>
    <edge id=":B13_6" function="internal">
        <lane id=":B13_6_0" index="0" speed="8.04" length="7.42" shape="1839.23,1881.79 1838.17,1882.11 1835.27,1881.72 1832.28,1880.12"/>
    </edge>
    <edge id=":B13_2" function="internal">
        <lane id=":B13_2_0" index="0" speed="6.54" length="8.04" shape="1834.16,1877.53 1836.07,1878.55 1837.91,1878.80 1839.69,1878.27 1841.41,1876.96"/>
    </edge>
    <edge id=":B13_3" function="internal">
        <lane id=":B13_3_0" index="0" speed="8.04" length="12.63" shape="1834.16,1877.53 1836.61,1879.89 1837.87,1882.52 1837.94,1885.44 1836.83,1888.65"/>
    </edge>
    <edge id=":B13_4" function="internal">
        <lane id=":B13_4_0" index="0" speed="6.54" length="8.04" shape="1833.98,1887.20 1834.69,1885.16 1834.64,1883.30 1833.84,1881.62 1832.28,1880.12"/>
    </edge>
    <edge id=":B13_5" function="internal">
        <lane id=":B13_5_0" index="0" speed="13.89" length="12.71" shape="1833.98,1887.20 1835.60,1884.21 1837.22,1881.73 1839.08,1879.43 1841.41,1876.96"/>
    </edge>
    <edge id=":B14_0" function="internal">
        <lane id=":B14_0_0" index="0" speed="13.89" length="11.72" shape="1888.65,1836.83 1885.79,1838.36 1883.59,1839.78 1881.56,1841.43 1879.23,1843.68"/>
    </edge>
    <edge id=":B14_1" function="internal">
        <lane id=":B14_1_0" index="0" speed="8.04" length="5.21" shape="1888.65,1836.83 1885.44,1837.94 1883.63,1837.90"/>
    </edge>
    <edge id=":B14_6" function="internal">
        <lane id=":B14_6_0" index="0" speed="8.04" length="7.42" shape="1883.63,1837.90 1882.52,1837.87 1879.89,1836.61 1877.53,1834.16"/>
    </edge>
    <edge id=":B14_2" function="internal">
        <lane id=":B14_2_0" index="0" speed="6.54" length="8.04" shape="1880.12,1832.28 1881.62,1833.84 1883.30,1834.64 1885.16,1834.69 1887.20,1833.98"/>
    </edge>
    <edge id=":B14_3" function="internal">
        <lane id=":B14_3_0" index="0" speed="8.04" length="12.63" shape="1880.12,1832.28 1881.72,1835.27 1882.11,1838.17 1881.28,1840.97 1879.23,1843.68"/>
    </edge>
    <edge id=":B14_4" function="internal">
        <lane id=":B14_4_0" index="0" speed="6.54" length="8.04" shape="1876.96,1841.41 1878.27,1839.69 1878.80,1837.91 1878.55,1836.07 1877.53,1834.16"/>
    </edge>
    <edge id=":B14_5" function="internal">
        <lane id=":B14_5_0" index="0" speed="13.89" length="12.71" shape="1876.96,1841.41 1879.43,1839.08 1881.73,1837.22 1884.21,1835.60 1887.20,1833.98"/>
    </edge>
    <edge id=":B15_0" function="internal">
        <lane id=":B15_0_0" index="0" speed="13.89" length="11.72" shape="1944.52,1810.41 1941.33,1810.98 1938.80,1811.65 1936.36,1812.60 1933.44,1814.01"/>
    </edge>
    <edge id=":B15_1" function="internal">
        <lane id=":B15_1_0" index="0" speed="8.04" length="5.21" shape="1944.52,1810.41 1941.13,1810.47 1939.41,1809.87"/>
    </edge>
    <edge id=":B15_6" function="internal">
        <lane id=":B15_6_0" index="0" speed="8.04" length="7.42" shape="1939.41,1809.87 1938.37,1809.50 1936.25,1807.49 1934.77,1804.43"/>
    </edge>
    <edge id=":B15_2" function="internal">
        <lane id=":B15_2_0" index="0" speed="6.54" length="8.04" shape="1937.82,1803.45 1938.76,1805.39 1940.11,1806.67 1941.86,1807.29 1944.02,1807.25"/>
    </edge>
    <edge id=":B15_3" function="internal">
        <lane id=":B15_3_0" index="0" speed="8.04" length="12.63" shape="1937.82,1803.45 1938.42,1806.79 1937.89,1809.66 1936.23,1812.07 1933.44,1814.01"/>
    </edge>
    <edge id=":B15_4" function="internal">
        <lane id=":B15_4_0" index="0" speed="6.54" length="8.04" shape="1931.99,1811.15 1933.76,1809.92 1934.82,1808.39 1935.15,1806.56 1934.77,1804.43"/>
    </edge>
    <edge id=":B15_5" function="internal">
        <lane id=":B15_5_0" index="0" speed="13.89" length="12.71" shape="1931.99,1811.15 1935.06,1809.70 1937.82,1808.64 1940.68,1807.87 1944.02,1807.25"/>
    </edge>
    <edge id=":B16_0" function="internal">
        <lane id=":B16_0_0" index="0" speed="13.89" length="11.72" shape="2005.82,1802.54 2002.61,1802.10 2000.00,1801.96 1997.39,1802.10 1994.18,1802.54"/>
    </edge>
    <edge id=":B16_1" function="internal">
        <lane id=":B16_1_0" index="0" speed="8.04" length="5.21" shape="2005.82,1802.54 2002.58,1801.56 2001.13,1800.45"/>
    </edge>
    <edge id=":B16_6" function="internal">
        <lane id=":B16_6_0" index="0" speed="8.04" length="7.42" shape="2001.13,1800.45 2000.26,1799.78 1998.86,1797.21 1998.40,1793.85"/>
    </edge>
    <edge id=":B16_2" function="internal">
        <lane id=":B16_2_0" index="0" speed="6.54" length="8.04" shape="2001.60,1793.85 2001.90,1795.99 2002.78,1797.62 2004.26,1798.76 2006.32,1799.38"/>
    </edge>
    <edge id=":B16_3" function="internal">
        <lane id=":B16_3_0" index="0" speed="8.04" length="12.63" shape="2001.60,1793.85 2001.14,1797.21 1999.74,1799.78 1997.42,1801.56 1994.18,1802.54"/>
    </edge>
    <edge id=":B16_4" function="internal">
        <lane id=":B16_4_0" index="0" speed="6.54" length="8.04" shape="1993.68,1799.38 1995.74,1798.76 1997.22,1797.62 1998.10,1795.99 1998.40,1793.85"/>
    </edge>
    <edge id=":B16_5" function="internal">
        <lane id=":B16_5_0" index="0" speed="13.89" length="12.71" shape="1993.68,1799.38 1997.04,1798.94 2000.00,1798.80 2002.96,1798.94 2006.32,1799.38"/>
    </edge>
    <edge id=":B17_0" function="internal">
        <lane id=":B17_0_0" index="0" speed="13.89" length="11.72" shape="2066.56,1814.01 2063.64,1812.60 2061.20,1811.65 2058.67,1810.98 2055.48,1810.41"/>
    </edge>
    <edge id=":B17_1" function="internal">
        <lane id=":B17_1_0" index="0" speed="8.04" length="5.21" shape="2066.56,1814.01 2063.77,1812.07 2062.74,1810.57"/>
    </edge>
    <edge id=":B17_6" function="internal">
        <lane id=":B17_6_0" index="0" speed="8.04" length="7.42" shape="2062.74,1810.57 2062.11,1809.66 2061.58,1806.79 2062.18,1803.45"/>
    </edge>
    <edge id=":B17_2" function="internal">
        <lane id=":B17_2_0" index="0" speed="6.54" length="8.04" shape="2065.23,1804.43 2064.85,1806.56 2065.18,1808.39 2066.24,1809.92 2068.01,1811.15"/>
    </edge>
    <edge id=":B17_3" function="internal">
        <lane id=":B17_3_0" index="0" speed="8.04" length="12.63" shape="2065.23,1804.43 2063.75,1807.49 2061.63,1809.50 2058.87,1810.47 2055.48,1810.41"/>
    </edge>
    <edge id=":B17_4" function="internal">
        <lane id=":B17_4_0" index="0" speed="6.54" length="8.04" shape="2055.98,1807.25 2058.14,1807.29 2059.89,1806.67 2061.24,1805.39 2062.18,1803.45"/>
    </edge>
    <edge id=":B17_5" function="internal">
        <lane id=":B17_5_0" index="0" speed="13.89" length="12.71" shape="2055.98,1807.25 2059.32,1807.87 2062.18,1808.64 2064.94,1809.70 2068.01,1811.15"/>
    </edge>
    <edge id=":B18_0" function="internal">
        <lane id=":B18_0_0" index="0" speed="13.89" length="11.72" shape="2120.77,1843.68 2118.44,1841.43 2116.41,1839.78 2114.21,1838.36 2111.35,1836.83"/>
    </edge>
    <edge id=":B18_1" function="internal">
        <lane id=":B18_1_0" index="0" speed="8.04" length="5.21" shape="2120.77,1843.68 2118.72,1840.97 2118.21,1839.23"/>
    </edge>
    <edge id=":B18_6" function="internal">
        <lane id=":B18_6_0" index="0" speed="8.04" length="7.42" shape="2118.21,1839.23 2117.89,1838.17 2118.28,1835.27 2119.88,1832.28"/>
    </edge>
    <edge id=":B18_2" function="internal">
        <lane id=":B18_2_0" index="0" speed="6.54" length="8.04" shape="2122.47,1834.16 2121.45,1836.07 2121.20,1837.91 2121.73,1839.69 2123.04,1841.41"/>
    </edge>
    <edge id=":B18_3" function="internal">
        <lane id=":B18_3_0" index="0" speed="8.04" length="12.63" shape="2122.47,1834.16 2120.11,1836.61 2117.48,1837.87 2114.56,1837.94 2111.35,1836.83"/>
    </edge>
    <edge id=":B18_4" function="internal">
        <lane id=":B18_4_0" index="0" speed="6.54" length="8.04" shape="2112.80,1833.98 2114.84,1834.69 2116.70,1834.64 2118.38,1833.84 2119.88,1832.28"/>
    </edge>
    <edge id=":B18_5" function="internal">
        <lane id=":B18_5_0" index="0" speed="13.89" length="12.71" shape="2112.80,1833.98 2115.79,1835.60 2118.27,1837.22 2120.57,1839.08 2123.04,1841.41"/>
    </edge>
    <edge id=":B19_0" function="internal">
        <lane id=":B19_0_0" index="0" speed="13.89" length="11.72" shape="2163.17,1888.65 2161.64,1885.79 2160.22,1883.59 2158.57,1881.56 2156.32,1879.23"/>
    </edge>
    <edge id=":B19_1" function="internal">
        <lane id=":B19_1_0" index="0" speed="8.04" length="5.21" shape="2163.17,1888.65 2162.06,1885.44 2162.10,1883.63"/>
    </edge>
    <edge id=":B19_6" function="internal">
        <lane id=":B19_6_0" index="0" speed="8.04" length="7.42" shape="2162.10,1883.63 2162.13,1882.52 2163.39,1879.89 2165.84,1877.53"/>
    </edge>
    <edge id=":B19_2" function="internal">
        <lane id=":B19_2_0" index="0" speed="6.54" length="8.04" shape="2167.72,1880.12 2166.16,1881.62 2165.36,1883.30 2165.31,1885.16 2166.02,1887.20"/>
    </edge>
    <edge id=":B19_3" function="internal">
        <lane id=":B19_3_0" index="0" speed="8.04" length="12.63" shape="2167.72,1880.12 2164.73,1881.72 2161.83,1882.11 2159.03,1881.28 2156.32,1879.23"/>
    </edge>
    <edge id=":B19_4" function="internal">
        <lane id=":B19_4_0" index="0" speed="6.54" length="8.04" shape="2158.59,1876.96 2160.31,1878.27 2162.09,1878.80 2163.93,1878.55 2165.84,1877.53"/>
    </edge>
    <edge id=":B19_5" function="internal">
        <lane id=":B19_5_0" index="0" speed="13.89" length="12.71" shape="2158.59,1876.96 2160.92,1879.43 2162.78,1881.73 2164.40,1884.21 2166.02,1887.20"/>
    </edge>
    <edge id=":B2_0" function="internal">
        <lane id=":B2_0_0" index="0" speed="6.54" length="8.04" shape="2195.57,2065.23 2193.44,2064.85 2191.61,2065.18 2190.08,2066.24 2188.85,2068.01"/>
    </edge>
    <edge id=":B2_1" function="internal">
        <lane id=":B2_1_0" index="0" speed="8.04" length="12.63" shape="2195.57,2065.23 2192.51,2063.75 2190.50,2061.63 2189.53,2058.87 2189.59,2055.48"/>
    </edge>
    <edge id=":B2_2" function="internal">
        <lane id=":B2_2_0" index="0" speed="6.54" length="8.04" shape="2192.75,2055.98 2192.71,2058.14 2193.33,2059.89 2194.61,2061.24 2196.55,2062.18"/>
    </edge>
    <edge id=":B2_3" function="internal">
        <lane id=":B2_3_0" index="0" speed="13.89" length="12.71" shape="2192.75,2055.98 2192.13,2059.32 2191.36,2062.18 2190.30,2064.94 2188.85,2068.01"/>
    </edge>
    <edge id=":B2_4" function="internal">
        <lane id=":B2_4_0" index="0" speed="13.89" length="11.72" shape="2185.99,2066.56 2187.40,2063.64 2188.35,2061.20 2189.02,2058.67 2189.59,2055.48"/>
    </edge>
    <edge id=":B2_5" function="internal">
        <lane id=":B2_5_0" index="0" speed="8.04" length="5.21" shape="2185.99,2066.56 2187.93,2063.77 2189.43,2062.74"/>
    </edge>
    <edge id=":B2_6" function="internal">
        <lane id=":B2_6_0" index="0" speed="8.04" length="7.42" shape="2189.43,2062.74 2190.34,2062.11 2193.21,2061.58 2196.55,2062.18"/>
    </edge>
    <edge id=":B20_0" function="internal">
        <lane id=":B20_0_0" index="0" speed="13.89" length="11.72" shape="2189.59,1944.52 2189.02,1941.33 2188.35,1938.80 2187.40,1936.36 2185.99,1933.44"/>
    </edge>
    <edge id=":B20_1" function="internal">
        <lane id=":B20_1_0" index="0" speed="8.04" length="5.21" shape="2189.59,1944.52 2189.53,1941.13 2190.13,1939.41"/>
    </edge>
    <edge id=":B20_6" function="internal">
        <lane id=":B20_6_0" index="0" speed="8.04" length="7.42" shape="2190.13,1939.41 2190.50,1938.37 2192.51,1936.25 2195.57,1934.77"/>
    </edge>
    <edge id=":B20_2" function="internal">
        <lane id=":B20_2_0" index="0" speed="6.54" length="8.04" shape="2196.55,1937.82 2194.61,1938.76 2193.33,1940.11 2192.71,1941.86 2192.75,1944.02"/>
    </edge>
    <edge id=":B20_3" function="internal">
        <lane id=":B20_3_0" index="0" speed="8.04" length="12.63" shape="2196.55,1937.82 2193.21,1938.42 2190.34,1937.89 2187.93,1936.23 2185.99,1933.44"/>
    </edge>
    <edge id=":B20_4" function="internal">
        <lane id=":B20_4_0" index="0" speed="6.54" length="8.04" shape="2188.85,1931.99 2190.08,1933.76 2191.61,1934.82 2193.44,1935.15 2195.57,1934.77"/>
    </edge>
    <edge id=":B20_5" function="internal">
        <lane id=":B20_5_0" index="0" speed="13.89" length="12.71" shape="2188.85,1931.99 2190.30,1935.06 2191.36,1937.82 2192.13,1940.68 2192.75,1944.02"/>
    </edge>
    <edge id=":B3_0" function="internal">
        <lane id=":B3_0_0" index="0" speed="6.54" length="8.04" shape="2165.84,2122.47 2163.93,2121.45 2162.09,2121.20 2160.31,2121.73 2158.59,2123.04"/>
    </edge>
    <edge id=":B3_1" function="internal">
        <lane id=":B3_1_0" index="0" speed="8.04" length="12.63" shape="2165.84,2122.47 2163.39,2120.11 2162.13,2117.48 2162.06,2114.56 2163.17,2111.35"/>
    </edge>
    <edge id=":B3_2" function="internal">
        <lane id=":B3_2_0" index="0" speed="6.54" length="8.04" shape="2166.02,2112.80 2165.31,2114.84 2165.36,2116.70 2166.16,2118.38 2167.72,2119.88"/>
    </edge>
    <edge id=":B3_3" function="internal">
        <lane id=":B3_3_0" index="0" speed="13.89" length="12.71" shape="2166.02,2112.80 2164.40,2115.79 2162.78,2118.27 2160.92,2120.57 2158.59,2123.04"/>
    </edge>
    <edge id=":B3_4" function="internal">
        <lane id=":B3_4_0" index="0" speed="13.89" length="11.72" shape="2156.32,2120.77 2158.57,2118.44 2160.22,2116.41 2161.64,2114.21 2163.17,2111.35"/>
    </edge>
    <edge id=":B3_5" function="internal">
        <lane id=":B3_5_0" index="0" speed="8.04" length="5.21" shape="2156.32,2120.77 2159.03,2118.72 2160.77,2118.21"/>
    </edge>
    <edge id=":B3_6" function="internal">
        <lane id=":B3_6_0" index="0" speed="8.04" length="7.42" shape="2160.77,2118.21 2161.83,2117.89 2164.73,2118.28 2167.72,2119.88"/>
    </edge>
    <edge id=":B4_0" function="internal">
        <lane id=":B4_0_0" index="0" speed="6.54" length="8.04" shape="2119.88,2167.72 2118.38,2166.16 2116.70,2165.36 2114.84,2165.31 2112.80,2166.02"/>
    </edge>
    <edge id=":B4_1" function="internal">
        <lane id=":B4_1_0" index="0" speed="8.04" length="12.63" shape="2119.88,2167.72 2118.28,2164.73 2117.89,2161.83 2118.72,2159.03 2120.77,2156.32"/>
    </edge>
    <edge id=":B4_2" function="internal">
        <lane id=":B4_2_0" index="0" speed="6.54" length="8.04" shape="2123.04,2158.59 2121.73,2160.31 2121.20,2162.09 2121.45,2163.93 2122.47,2165.84"/>
    </edge>
    <edge id=":B4_3" function="internal">
        <lane id=":B4_3_0" index="0" speed="13.89" length="12.71" shape="2123.04,2158.59 2120.57,2160.92 2118.27,2162.78 2115.79,2164.40 2112.80,2166.02"/>
    </edge>
    <edge id=":B4_4" function="internal">
        <lane id=":B4_4_0" index="0" speed="13.89" length="11.72" shape="2111.35,2163.17 2114.21,2161.64 2116.41,2160.22 2118.44,2158.57 2120.77,2156.32"/>
    </edge>
    <edge id=":B4_5" function="internal">
        <lane id=":B4_5_0" index="0" speed="8.04" length="5.21" shape="2111.35,2163.17 2114.56,2162.06 2116.37,2162.10"/>
    </edge>
    <edge id=":B4_6" function="internal">
        <lane id=":B4_6_0" index="0" speed="8.04" length="7.42" shape="2116.37,2162.10 2117.48,2162.13 2120.11,2163.39 2122.47,2165.84"/>
    </edge>
    <edge id=":B5_0" function="internal">
        <lane id=":B5_0_0" index="0" speed="6.54" length="8.04" shape="2062.18,2196.55 2061.24,2194.61 2059.89,2193.33 2058.14,2192.71 2055.98,2192.75"/>
    </edge>
    <edge id=":B5_1" function="internal">
        <lane id=":B5_1_0" index="0" speed="8.04" length="12.63" shape="2062.18,2196.55 2061.58,2193.21 2062.11,2190.34 2063.77,2187.93 2066.56,2185.99"/>
    </edge>
    <edge id=":B5_2" function="internal">
        <lane id=":B5_2_0" index="0" speed="6.54" length="8.04" shape="2068.01,2188.85 2066.24,2190.08 2065.18,2191.61 2064.85,2193.44 2065.23,2195.57"/>
    </edge>
    <edge id=":B5_3" function="internal">
        <lane id=":B5_3_0" index="0" speed="13.89" length="12.71" shape="2068.01,2188.85 2064.94,2190.30 2062.18,2191.36 2059.32,2192.13 2055.98,2192.75"/>
    </edge>
    <edge id=":B5_4" function="internal">
        <lane id=":B5_4_0" index="0" speed="13.89" length="11.72" shape="2055.48,2189.59 2058.67,2189.02 2061.20,2188.35 2063.64,2187.40 2066.56,2185.99"/>
    </edge>
    <edge id=":B5_5" function="internal">
        <lane id=":B5_5_0" index="0" speed="8.04" length="5.21" shape="2055.48,2189.59 2058.87,2189.53 2060.59,2190.13"/>
    </edge>
    <edge id=":B5_6" function="internal">
        <lane id=":B5_6_0" index="0" speed="8.04" length="7.42" shape="2060.59,2190.13 2061.63,2190.50 2063.75,2192.51 2065.23,2195.57"/>
    </edge>
    <edge id=":B6_0" function="internal">
        <lane id=":B6_0_0" index="0" speed="6.54" length="8.04" shape="1998.40,2206.15 1998.10,2204.01 1997.22,2202.38 1995.74,2201.24 1993.68,2200.62"/>
    </edge>
    <edge id=":B6_1" function="internal">
        <lane id=":B6_1_0" index="0" speed="8.04" length="12.63" shape="1998.40,2206.15 1998.86,2202.79 2000.26,2200.22 2002.58,2198.44 2005.82,2197.46"/>
    </edge>
    <edge id=":B6_2" function="internal">
        <lane id=":B6_2_0" index="0" speed="6.54" length="8.04" shape="2006.32,2200.62 2004.26,2201.24 2002.78,2202.38 2001.90,2204.01 2001.60,2206.15"/>
    </edge>
    <edge id=":B6_3" function="internal">
        <lane id=":B6_3_0" index="0" speed="13.89" length="12.71" shape="2006.32,2200.62 2002.96,2201.06 2000.00,2201.20 1997.04,2201.06 1993.68,2200.62"/>
    </edge>
    <edge id=":B6_4" function="internal">
        <lane id=":B6_4_0" index="0" speed="13.89" length="11.72" shape="1994.18,2197.46 1997.39,2197.90 2000.00,2198.04 2002.61,2197.90 2005.82,2197.46"/>
    </edge>
    <edge id=":B6_5" function="internal">
        <lane id=":B6_5_0" index="0" speed="8.04" length="5.21" shape="1994.18,2197.46 1997.42,2198.44 1998.87,2199.55"/>
    </edge>
    <edge id=":B6_6" function="internal">
        <lane id=":B6_6_0" index="0" speed="8.04" length="7.42" shape="1998.87,2199.55 1999.74,2200.22 2001.14,2202.79 2001.60,2206.15"/>
    </edge>
    <edge id=":B7_0" function="internal">
        <lane id=":B7_0_0" index="0" speed="6.54" length="8.04" shape="1944.02,2192.75 1941.86,2192.71 1940.11,2193.33 1938.76,2194.61 1937.82,2196.55"/>
    </edge>
    <edge id=":B7_1" function="internal">
        <lane id=":B7_1_0" index="0" speed="13.89" length="12.71" shape="1944.02,2192.75 1940.68,2192.13 1937.82,2191.36 1935.06,2190.30 1931.99,2188.85"/>
    </edge>
    <edge id=":B7_2" function="internal">
        <lane id=":B7_2_0" index="0" speed="13.89" length="11.72" shape="1933.44,2185.99 1936.36,2187.40 1938.80,2188.35 1941.33,2189.02 1944.52,2189.59"/>
    </edge>
    <edge id=":B7_3" function="internal">
        <lane id=":B7_3_0" index="0" speed="8.04" length="5.21" shape="1933.44,2185.99 1936.23,2187.93 1937.26,2189.43"/>
    </edge>
    <edge id=":B7_6" function="internal">
        <lane id=":B7_6_0" index="0" speed="8.04" length="7.42" shape="1937.26,2189.43 1937.89,2190.34 1938.42,2193.21 1937.82,2196.55"/>
    </edge>
    <edge id=":B7_4" function="internal">
        <lane id=":B7_4_0" index="0" speed="6.54" length="8.04" shape="1934.77,2195.57 1935.15,2193.44 1934.82,2191.61 1933.76,2190.08 1931.99,2188.85"/>
    </edge>
    <edge id=":B7_5" function="internal">
        <lane id=":B7_5_0" index="0" speed="8.04" length="12.63" shape="1934.77,2195.57 1936.25,2192.51 1938.37,2190.50 1941.13,2189.53 1944.52,2189.59"/>
    </edge>
    <edge id=":B8_0" function="internal">
        <lane id=":B8_0_0" index="0" speed="6.54" length="8.04" shape="1887.20,2166.02 1885.16,2165.31 1883.30,2165.36 1881.62,2166.16 1880.12,2167.72"/>
    </edge>
    <edge id=":B8_1" function="internal">
        <lane id=":B8_1_0" index="0" speed="13.89" length="12.71" shape="1887.20,2166.02 1884.21,2164.40 1881.73,2162.78 1879.43,2160.92 1876.96,2158.59"/>
    </edge>
    <edge id=":B8_2" function="internal">
        <lane id=":B8_2_0" index="0" speed="13.89" length="11.72" shape="1879.23,2156.32 1881.56,2158.57 1883.59,2160.22 1885.79,2161.64 1888.65,2163.17"/>
    </edge>
    <edge id=":B8_3" function="internal">
        <lane id=":B8_3_0" index="0" speed="8.04" length="5.21" shape="1879.23,2156.32 1881.28,2159.03 1881.79,2160.77"/>
    </edge>
    <edge id=":B8_6" function="internal">
        <lane id=":B8_6_0" index="0" speed="8.04" length="7.42" shape="1881.79,2160.77 1882.11,2161.83 1881.72,2164.73 1880.12,2167.72"/>
    </edge>
    <edge id=":B8_4" function="internal">
        <lane id=":B8_4_0" index="0" speed="6.54" length="8.04" shape="1877.53,2165.84 1878.55,2163.93 1878.80,2162.09 1878.27,2160.31 1876.96,2158.59"/>
    </edge>
    <edge id=":B8_5" function="internal">
        <lane id=":B8_5_0" index="0" speed="8.04" length="12.63" shape="1877.53,2165.84 1879.89,2163.39 1882.52,2162.13 1885.44,2162.06 1888.65,2163.17"/>
    </edge>
    <edge id=":B9_0" function="internal">
        <lane id=":B9_0_0" index="0" speed="6.54" length="8.04" shape="1841.41,2123.04 1839.69,2121.73 1837.91,2121.20 1836.07,2121.45 1834.16,2122.47"/>
    </edge>
    <edge id=":B9_1" function="internal">
        <lane id=":B9_1_0" index="0" speed="13.89" length="12.71" shape="1841.41,2123.04 1839.08,2120.57 1837.22,2118.27 1835.60,2115.79 1833.98,2112.80"/>
    </edge>
    <edge id=":B9_2" function="internal">
        <lane id=":B9_2_0" index="0" speed="13.89" length="11.72" shape="1836.83,2111.35 1838.36,2114.21 1839.78,2116.41 1841.43,2118.44 1843.68,2120.77"/>
    </edge>
    <edge id=":B9_3" function="internal">
        <lane id=":B9_3_0" index="0" speed="8.04" length="5.21" shape="1836.83,2111.35 1837.94,2114.56 1837.90,2116.37"/>
    </edge>
    <edge id=":B9_6" function="internal">
        <lane id=":B9_6_0" index="0" speed="8.04" length="7.42" shape="1837.90,2116.37 1837.87,2117.48 1836.61,2120.11 1834.16,2122.47"/>
    </edge>
    <edge id=":B9_4" function="internal">
        <lane id=":B9_4_0" index="0" speed="6.54" length="8.04" shape="1832.28,2119.88 1833.84,2118.38 1834.64,2116.70 1834.69,2114.84 1833.98,2112.80"/>
    </edge>
    <edge id=":B9_5" function="internal">
        <lane id=":B9_5_0" index="0" speed="8.04" length="12.63" shape="1832.28,2119.88 1835.27,2118.28 1838.17,2117.89 1840.97,2118.72 1843.68,2120.77"/>
    </edge>
    <edge id=":C1_0" function="internal">
        <lane id=":C1_0_0" index="0" speed="7.18" length="9.88" shape="2406.73,2001.60 2404.32,2001.99 2402.46,2003.18 2401.14,2005.14 2400.37,2007.90"/>
    </edge>
    <edge id=":C1_1" function="internal">
        <lane id=":C1_1_0" index="0" speed="13.89" length="14.48" shape="2406.73,2001.60 2392.25,2001.60"/>
    </edge>
    <edge id=":C1_2" function="internal">