<routes>
        <vType id="typeWE" accel="0.8" decel="4.5" sigma="0.5" length="5" minGap="2.5" maxSpeed="16.67" guiShape="passenger"/>
        <vType id="typeNS" accel="0.8" decel="4.5" sigma="0.5" length="7" minGap="3" maxSpeed="25" guiShape="bus"/>

        <route id="right" edges="51o 1i 2o 52i" />
        <route id="left" edges="52o 2i 1o 51i" />
        <route id="down" edges="54o 4i 3o 53i" />
    <vehicle id="left_0" type="typeWE" route="down" depart="0" />
    <vehicle id="left_1" type="typeNS" route="left" depart="2" />
    <vehicle id="right_2" type="typeWE" route="right" depart="3" />
    <vehicle id="right_3" type="typeWE" route="right" depart="4" />
    <vehicle id="left_4" type="typeWE" route="left" depart="6" />
    <vehicle id="right_5" type="typeNS" route="right" depart="9" />
    <vehicle id="left_6" type="typeWE" route="left" depart="22" />
    <vehicle id="left_7" type="typeWE" route="left" depart="31" />
    <vehicle id="left_8" type="typeNS" route="left" depart="33" />
    <vehicle id="left_9" type="typeWE" route="left" depart="41" />
    <vehicle id="right_10" type="typeWE" route="right" depart="42" />
    <vehicle id="left_11" type="typeNS" route="left" depart="45" />
    <vehicle id="left_12" type="typeWE" route="left" depart="53" />
    <vehicle id="right_13" type="typeWE" route="right" depart="55" />
    <vehicle id="right_14" type="typeNS" route="right" depart="61" />
    <vehicle id="right_15" type="typeWE" route="right" depart="69" />
    <vehicle id="right_16" type="typeNS" route="right" depart="84" />
    <vehicle id="left_17" type="typeWE" route="left" depart="85" />
    <vehicle id="down_18" type="typeNS" route="down" depart="89" color="1,0,0"/>
    <vehicle id="down_19" type="typeNS" route="down" depart="96" color="1,0,0"/>
 </routes>
