<additional xmlns:xsi="http://www.w3.org/2001/XMLSchema-instance" xsi:noNamespaceSchemaLocation="http://sumo.dlr.de/xsd/additional_file.xsd">
    <e1Detector id="e1Detector_-gneE10_0_15" lane="-gneE10_0" pos="60.60" freq="900.00" file="e1Detector_-gneE10_0_15.xml" />
    <e1Detector id="e1Detector_-gneE11_0_13" lane="-gneE11_0" pos="60.60" freq="900.00" file="e1Detector_-gneE11_0_13.xml" />
    <e1Detector id="e1Detector_-gneE14_0_6" lane="-gneE14_0" pos="60.60" freq="900.00" file="e1Detector_-gneE14_0_6.xml" />
    <e1Detector id="e1Detector_-gneE18_0_10" lane="-gneE18_0" pos="60.60" freq="900.00" file="e1Detector_-gneE18_0_10.xml" />
    <e1Detector id="e1Detector_-gneE22_0_32" lane="-gneE22_0" pos="113.44" freq="900.00" file="e1Detector_-gneE22_0_32.xml" />
    <e1Detector id="e1Detector_-gneE23_0_29" lane="-gneE23_0" pos="67.80" freq="900.00" file="e1Detector_-gneE23_0_29.xml" />
    <e1Detector id="e1Detector_-gneE24_0_24" lane="-gneE24_0" pos="111.10" freq="900.00" file="e1Detector_-gneE24_0_24.xml" />
    <e1Detector id="e1Detector_-gneE25_0_3" lane="-gneE25_0" pos="260.60" freq="900.00" file="e1Detector_-gneE25_0_3.xml" />
    <e1Detector id="e1Detector_-gneE26_0_7" lane="-gneE26_0" pos="260.60" freq="900.00" file="e1Detector_-gneE26_0_7.xml" />
    <e1Detector id="e1Detector_-gneE27_0_11" lane="-gneE27_0" pos="260.60" freq="900.00" file="e1Detector_-gneE27_0_11.xml" />
    <e1Detector id="e1Detector_-gneE2_0_17" lane="-gneE2_0" pos="264.82" freq="900.00" file="e1Detector_-gneE2_0_17.xml" />
    <e1Detector id="e1Detector_-gneE3_0_28" lane="-gneE3_0" pos="64.82" freq="900.00" file="e1Detector_-gneE3_0_28.xml" />
    <e1Detector id="e1Detector_-gneE4_0_26" lane="-gneE4_0" pos="60.60" freq="900.00" file="e1Detector_-gneE4_0_26.xml" />
    <e1Detector id="e1Detector_-gneE5_0_22" lane="-gneE5_0" pos="260.60" freq="900.00" file="e1Detector_-gneE5_0_22.xml" />
    <e1Detector id="e1Detector_-gneE9_0_19" lane="-gneE9_0" pos="260.60" freq="900.00" file="e1Detector_-gneE9_0_19.xml" />
    <e1Detector id="e1Detector_gneE10_0_16" lane="gneE10_0" pos="60.60" freq="900.00" file="e1Detector_gneE10_0_16.xml" />
    <e1Detector id="e1Detector_gneE11_0_14" lane="gneE11_0" pos="60.60" freq="900.00" file="e1Detector_gneE11_0_14.xml" />
    <e1Detector id="e1Detector_gneE14_0_5" lane="gneE14_0" pos="60.60" freq="900.00" file="e1Detector_gneE14_0_5.xml" />
    <e1Detector id="e1Detector_gneE15_0_0" lane="gneE15_0" pos="210.55" freq="900.00" file="e1Detector_gneE15_0_0.xml" />
    <e1Detector id="e1Detector_gneE16_0_1" lane="gneE16_0" pos="167.80" freq="900.00" file="e1Detector_gneE16_0_1.xml" />
    <e1Detector id="e1Detector_gneE17_0_2" lane="gneE17_0" pos="207.90" freq="900.00" file="e1Detector_gneE17_0_2.xml" />
    <e1Detector id="e1Detector_gneE18_0_9" lane="gneE18_0" pos="60.60" freq="900.00" file="e1Detector_gneE18_0_9.xml" />
    <e1Detector id="e1Detector_gneE22_0_31" lane="gneE22_0" pos="113.44" freq="900.00" file="e1Detector_gneE22_0_31.xml" />
    <e1Detector id="e1Detector_gneE23_0_30" lane="gneE23_0" pos="67.80" freq="900.00" file="e1Detector_gneE23_0_30.xml" />
    <e1Detector id="e1Detector_gneE24_0_23" lane="gneE24_0" pos="111.10" freq="900.00" file="e1Detector_gneE24_0_23.xml" />
    <e1Detector id="e1Detector_gneE25_0_34" lane="gneE25_0" pos="260.60" freq="900.00" file="e1Detector_gneE25_0_34.xml" />
    <e1Detector id="e1Detector_gneE25_0_4" lane="gneE25_0" pos="260.60" freq="900.00" file="e1Detector_gneE25_0_4.xml" />
    <e1Detector id="e1Detector_gneE26_0_8" lane="gneE26_0" pos="260.60" freq="900.00" file="e1Detector_gneE26_0_8.xml" />
    <e1Detector id="e1Detector_gneE27_0_12" lane="gneE27_0" pos="260.60" freq="900.00" file="e1Detector_gneE27_0_12.xml" />
    <e1Detector id="e1Detector_gneE2_0_18" lane="gneE2_0" pos="264.82" freq="900.00" file="e1Detector_gneE2_0_18.xml" />
    <e1Detector id="e1Detector_gneE3_0_27" lane="gneE3_0" pos="67.58" freq="900.00" file="e1Detector_gneE3_0_27.xml" />
    <e1Detector id="e1Detector_gneE4_0_25" lane="gneE4_0" pos="60.60" freq="900.00" file="e1Detector_gneE4_0_25.xml" />
    <e1Detector id="e1Detector_gneE5_0_21" lane="gneE5_0" pos="260.60" freq="900.00" file="e1Detector_gneE5_0_21.xml" />
    <e1Detector id="e1Detector_gneE9_0_20" lane="gneE9_0" pos="260.60" freq="900.00" file="e1Detector_gneE9_0_20.xml" />
</additional>