<additional><e1Detector id="Detector_AA0AA1_0" lane="AA0AA1_0" pos="120.82" freq="900" file="NUL" /><e1Detector id="Detector_AA0AB0_0" lane="AA0AB0_0" pos="55.17" freq="900" file="NUL" /><e1Detector id="Detector_AA1AA2_0" lane="AA1AA2_0" pos="116.82" freq="900" file="NUL" /><e1Detector id="Detector_AA1AB1_0" lane="AA1AB1_0" pos="51.17" freq="900" file="NUL" /><e1Detector id="Detector_AA2AA1_0" lane="AA2AA1_0" pos="116.82" freq="900" file="NUL" /><e1Detector id="Detector_AA2AA3_0" lane="AA2AA3_0" pos="116.82" freq="900" file="NUL" /><e1Detector id="Detector_AA2AB2_0" lane="AA2AB2_0" pos="51.17" freq="900" file="NUL" /><e1Detector id="Detector_AA3AA2_0" lane="AA3AA2_0" pos="116.82" freq="900" file="NUL" /><e1Detector id="Detector_AA3AA4_0" lane="AA3AA4_0" pos="116.82" freq="900" file="NUL" /><e1Detector id="Detector_AA3AB3_0" lane="AA3AB3_0" pos="51.17" freq="900" file="NUL" /><e1Detector id="Detector_AA4AA3_0" lane="AA4AA3_0" pos="116.82" freq="900" file="NUL" /><e1Detector id="Detector_AA4AA5_0" lane="AA4AA5_0" pos="116.82" freq="900" file="NUL" /><e1Detector id="Detector_AA4AB4_0" lane="AA4AB4_0" pos="51.17" freq="900" file="NUL" /><e1Detector id="Detector_AA5AA4_0" lane="AA5AA4_0" pos="116.82" freq="900" file="NUL" /><e1Detector id="Detector_AA5AA6_0" lane="AA5AA6_0" pos="116.82" freq="900" file="NUL" /><e1Detector id="Detector_AA5AB5_0" lane="AA5AB5_0" pos="51.17" freq="900" file="NUL" /><e1Detector id="Detector_AA6AA5_0" lane="AA6AA5_0" pos="116.82" freq="900" file="NUL" /><e1Detector id="Detector_AA6AB6_0" lane="AA6AB6_0" pos="51.17" freq="900" file="NUL" /><e1Detector id="Detector_AA7AA6_0" lane="AA7AA6_0" pos="120.82" freq="900" file="NUL" /><e1Detector id="Detector_AA7AB7_0" lane="AA7AB7_0" pos="55.17" freq="900" file="NUL" /><e1Detector id="Detector_AB0AB1_0" lane="AB0AB1_0" pos="116.82" freq="900" file="NUL" /><e1Detector id="Detector_AB0AC0_0" lane="AB0AC0_0" pos="51.17" freq="900" file="NUL" /><e1Detector id="Detector_AB1AA1_0" lane="AB1AA1_0" pos="51.17" freq="900" file="NUL" /><e1Detector id="Detector_AB1AB0_0" lane="AB1AB0_0" pos="116.82" freq="900" file="NUL" /><e1Detector id="Detector_AB1AB2_0" lane="AB1AB2_0" pos="116.82" freq="900" file="NUL" /><e1Detector id="Detector_AB1AC1_0" lane="AB1AC1_0" pos="51.17" freq="900" file="NUL" /><e1Detector id="Detector_AB2AA2_0" lane="AB2AA2_0" pos="51.17" freq="900" file="NUL" /><e1Detector id="Detector_AB2AB1_0" lane="AB2AB1_0" pos="116.82" freq="900" file="NUL" /><e1Detector id="Detector_AB2AB3_0" lane="AB2AB3_0" pos="116.82" freq="900" file="NUL" /><e1Detector id="Detector_AB2AC2_0" lane="AB2AC2_0" pos="51.17" freq="900" file="NUL" /><e1Detector id="Detector_AB3AA3_0" lane="AB3AA3_0" pos="51.17" freq="900" file="NUL" /><e1Detector id="Detector_AB3AB2_0" lane="AB3AB2_0" pos="116.82" freq="900" file="NUL" /><e1Detector id="Detector_AB3AB4_0" lane="AB3AB4_0" pos="116.82" freq="900" file="NUL" /><e1Detector id="Detector_AB3AC3_0" lane="AB3AC3_0" pos="51.17" freq="900" file="NUL" /><e1Detector id="Detector_AB4AA4_0" lane="AB4AA4_0" pos="51.17" freq="900" file="NUL" /><e1Detector id="Detector_AB4AB3_0" lane="AB4AB3_0" pos="116.82" freq="900" file="NUL" /><e1Detector id="Detector_AB4AB5_0" lane="AB4AB5_0" pos="116.82" freq="900" file="NUL" /><e1Detector id="Detector_AB4AC4_0" lane="AB4AC4_0" pos="51.17" freq="900" file="NUL" /><e1Detector id="Detector_AB5AA5_0" lane="AB5AA5_0" pos="51.17" freq="900" file="NUL" /><e1Detector id="Detector_AB5AB4_0" lane="AB5AB4_0" pos="116.82" freq="900" file="NUL" /><e1Detector id="Detector_AB5AB6_0" lane="AB5AB6_0" pos="116.82" freq="900" file="NUL" /><e1Detector id="Detector_AB5AC5_0" lane="AB5AC5_0" pos="51.17" freq="900" file="NUL" /><e1Detector id="Detector_AB6AA6_0" lane="AB6AA6_0" pos="51.17" freq="900" file="NUL" /><e1Detector id="Detector_AB6AB5_0" lane="AB6AB5_0" pos="116.82" freq="900" file="NUL" /><e1Detector id="Detector_AB6AB7_0" lane="AB6AB7_0" pos="116.82" freq="900" file="NUL" /><e1Detector id="Detector_AB6AC6_0" lane="AB6AC6_0" pos="51.17" freq="900" file="NUL" /><e1Detector id="Detector_AB7AB6_0" lane="AB7AB6_0" pos="116.82" freq="900" file="NUL" /><e1Detector id="Detector_AB7AC7_0" lane="AB7AC7_0" pos="51.17" freq="900" file="NUL" /><e1Detector id="Detector_AC0AB0_0" lane="AC0AB0_0" pos="51.17" freq="900" file="NUL" /><e1Detector id="Detector_AC0AC1_0" lane="AC0AC1_0" pos="116.82" freq="900" file="NUL" /><e1Detector id="Detector_AC0AD0_0" lane="AC0AD0_0" pos="51.17" freq="900" file="NUL" /><e1Detector id="Detector_AC1AB1_0" lane="AC1AB1_0" pos="51.17" freq="900" file="NUL" /><e1Detector id="Detector_AC1AC0_0" lane="AC1AC0_0" pos="116.82" freq="900" file="NUL" /><e1Detector id="Detector_AC1AC2_0" lane="AC1AC2_0" pos="116.82" freq="900" file="NUL" /><e1Detector id="Detector_AC1AD1_0" lane="AC1AD1_0" pos="51.17" freq="900" file="NUL" /><e1Detector id="Detector_AC2AB2_0" lane="AC2AB2_0" pos="51.17" freq="900" file="NUL" /><e1Detector id="Detector_AC2AC1_0" lane="AC2AC1_0" pos="116.82" freq="900" file="NUL" /><e1Detector id="Detector_AC2AC3_0" lane="AC2AC3_0" pos="116.82" freq="900" file="NUL" /><e1Detector id="Detector_AC2AD2_0" lane="AC2AD2_0" pos="51.17" freq="900" file="NUL" /><e1Detector id="Detector_AC3AB3_0" lane="AC3AB3_0" pos="51.17" freq="900" file="NUL" /><e1Detector id="Detector_AC3AC2_0" lane="AC3AC2_0" pos="116.82" freq="900" file="NUL" /><e1Detector id="Detector_AC3AC4_0" lane="AC3AC4_0" pos="116.82" freq="900" file="NUL" /><e1Detector id="Detector_AC3AD3_0" lane="AC3AD3_0" pos="51.17" freq="900" file="NUL" /><e1Detector id="Detector_AC4AB4_0" lane="AC4AB4_0" pos="51.17" freq="900" file="NUL" /><e1Detector id="Detector_AC4AC3_0" lane="AC4AC3_0" pos="116.82" freq="900" file="NUL" /><e1Detector id="Detector_AC4AC5_0" lane="AC4AC5_0" pos="116.82" freq="900" file="NUL" /><e1Detector id="Detector_AC4AD4_0" lane="AC4AD4_0" pos="51.17" freq="900" file="NUL" /><e1Detector id="Detector_AC5AB5_0" lane="AC5AB5_0" pos="51.17" freq="900" file="NUL" /><e1Detector id="Detector_AC5AC4_0" lane="AC5AC4_0" pos="116.82" freq="900" file="NUL" /><e1Detector id="Detector_AC5AC6_0" lane="AC5AC6_0" pos="116.82" freq="900" file="NUL" /><e1Detector id="Detector_AC5AD5_0" lane="AC5AD5_0" pos="51.17" freq="900" file="NUL" /><e1Detector id="Detector_AC6AB6_0" lane="AC6AB6_0" pos="51.17" freq="900" file="NUL" /><e1Detector id="Detector_AC6AC5_0" lane="AC6AC5_0" pos="116.82" freq="900" file="NUL" /><e1Detector id="Detector_AC6AC7_0" lane="AC6AC7_0" pos="116.82" freq="900" file="NUL" /><e1Detector id="Detector_AC6AD6_0" lane="AC6AD6_0" pos="51.17" freq="900" file="NUL" /><e1Detector id="Detector_AC7AB7_0" lane="AC7AB7_0" pos="51.17" freq="900" file="NUL" /><e1Detector id="Detector_AC7AC6_0" lane="AC7AC6_0" pos="116.82" freq="900" file="NUL" /><e1Detector id="Detector_AC7AD7_0" lane="AC7AD7_0" pos="51.17" freq="900" file="NUL" /><e1Detector id="Detector_AD0AC0_0" lane="AD0AC0_0" pos="51.17" freq="900" file="NUL" /><e1Detector id="Detector_AD0AD1_0" lane="AD0AD1_0" pos="116.82" freq="900" file="NUL" /><e1Detector id="Detector_AD0AE0_0" lane="AD0AE0_0" pos="51.17" freq="900" file="NUL" /><e1Detector id="Detector_AD1AC1_0" lane="AD1AC1_0" pos="51.17" freq="900" file="NUL" /><e1Detector id="Detector_AD1AD0_0" lane="AD1AD0_0" pos="116.82" freq="900" file="NUL" /><e1Detector id="Detector_AD1AD2_0" lane="AD1AD2_0" pos="116.82" freq="900" file="NUL" /><e1Detector id="Detector_AD1AE1_0" lane="AD1AE1_0" pos="51.17" freq="900" file="NUL" /><e1Detector id="Detector_AD2AC2_0" lane="AD2AC2_0" pos="51.17" freq="900" file="NUL" /><e1Detector id="Detector_AD2AD1_0" lane="AD2AD1_0" pos="116.82" freq="900" file="NUL" /><e1Detector id="Detector_AD2AD3_0" lane="AD2AD3_0" pos="116.82" freq="900" file="NUL" /><e1Detector id="Detector_AD2AE2_0" lane="AD2AE2_0" pos="51.17" freq="900" file="NUL" /><e1Detector id="Detector_AD3AC3_0" lane="AD3AC3_0" pos="51.17" freq="900" file="NUL" /><e1Detector id="Detector_AD3AD2_0" lane="AD3AD2_0" pos="116.82" freq="900" file="NUL" /><e1Detector id="Detector_AD3AD4_0" lane="AD3AD4_0" pos="116.82" freq="900" file="NUL" /><e1Detector id="Detector_AD3AE3_0" lane="AD3AE3_0" pos="51.17" freq="900" file="NUL" /><e1Detector id="Detector_AD4AC4_0" lane="AD4AC4_0" pos="51.17" freq="900" file="NUL" /><e1Detector id="Detector_AD4AD3_0" lane="AD4AD3_0" pos="116.82" freq="900" file="NUL" /><e1Detector id="Detector_AD4AD5_0" lane="AD4AD5_0" pos="116.82" freq="900" file="NUL" /><e1Detector id="Detector_AD4AE4_0" lane="AD4AE4_0" pos="51.17" freq="900" file="NUL" /><e1Detector id="Detector_AD5AC5_0" lane="AD5AC5_0" pos="51.17" freq="900" file="NUL" /><e1Detector id="Detector_AD5AD4_0" lane="AD5AD4_0" pos="116.82" freq="900" file="NUL" /><e1Detector id="Detector_AD5AD6_0" lane="AD5AD6_0" pos="116.82" freq="900" file="NUL" /><e1Detector id="Detector_AD5AE5_0" lane="AD5AE5_0" pos="51.17" freq="900" file="NUL" /><e1Detector id="Detector_AD6AC6_0" lane="AD6AC6_0" pos="51.17" freq="900" file="NUL" /><e1Detector id="Detector_AD6AD5_0" lane="AD6AD5_0" pos="116.82" freq="900" file="NUL" /><e1Detector id="Detector_AD6AD7_0" lane="AD6AD7_0" pos="116.82" freq="900" file="NUL" /><e1Detector id="Detector_AD6AE6_0" lane="AD6AE6_0" pos="51.17" freq="900" file="NUL" /><e1Detector id="Detector_AD7AC7_0" lane="AD7AC7_0" pos="51.17" freq="900" file="NUL" /><e1Detector id="Detector_AD7AD6_0" lane="AD7AD6_0" pos="116.82" freq="900" file="NUL" /><e1Detector id="Detector_AD7AE7_0" lane="AD7AE7_0" pos="51.17" freq="900" file="NUL" /><e1Detector id="Detector_AE0AD0_0" lane="AE0AD0_0" pos="51.17" freq="900" file="NUL" /><e1Detector id="Detector_AE0AE1_0" lane="AE0AE1_0" pos="116.82" freq="900" file="NUL" /><e1Detector id="Detector_AE0AF0_0" lane="AE0AF0_0" pos="51.17" freq="900" file="NUL" /><e1Detector id="Detector_AE1AD1_0" lane="AE1AD1_0" pos="51.17" freq="900" file="NUL" /><e1Detector id="Detector_AE1AE0_0" lane="AE1AE0_0" pos="116.82" freq="900" file="NUL" /><e1Detector id="Detector_AE1AE2_0" lane="AE1AE2_0" pos="116.82" freq="900" file="NUL" /><e1Detector id="Detector_AE1AF1_0" lane="AE1AF1_0" pos="51.17" freq="900" file="NUL" /><e1Detector id="Detector_AE2AD2_0" lane="AE2AD2_0" pos="51.17" freq="900" file="NUL" /><e1Detector id="Detector_AE2AE1_0" lane="AE2AE1_0" pos="116.82" freq="900" file="NUL" /><e1Detector id="Detector_AE2AE3_0" lane="AE2AE3_0" pos="116.82" freq="900" file="NUL" /><e1Detector id="Detector_AE2AF2_0" lane="AE2AF2_0" pos="51.17" freq="900" file="NUL" /><e1Detector id="Detector_AE3AD3_0" lane="AE3AD3_0" pos="51.17" freq="900" file="NUL" /><e1Detector id="Detector_AE3AE2_0" lane="AE3AE2_0" pos="116.82" freq="900" file="NUL" /><e1Detector id="Detector_AE3AE4_0" lane="AE3AE4_0" pos="116.82" freq="900" file="NUL" /><e1Detector id="Detector_AE3AF3_0" lane="AE3AF3_0" pos="51.17" freq="900" file="NUL" /><e1Detector id="Detector_AE4AD4_0" lane="AE4AD4_0" pos="51.17" freq="900" file="NUL" /><e1Detector id="Detector_AE4AE3_0" lane="AE4AE3_0" pos="116.82" freq="900" file="NUL" /><e1Detector id="Detector_AE4AE5_0" lane="AE4AE5_0" pos="116.82" freq="900" file="NUL" /><e1Detector id="Detector_AE4AF4_0" lane="AE4AF4_0" pos="51.17" freq="900" file="NUL" /><e1Detector id="Detector_AE5AD5_0" lane="AE5AD5_0" pos="51.17" freq="900" file="NUL" /><e1Detector id="Detector_AE5AE4_0" lane="AE5AE4_0" pos="116.82" freq="900" file="NUL" /><e1Detector id="Detector_AE5AE6_0" lane="AE5AE6_0" pos="116.82" freq="900" file="NUL" /><e1Detector id="Detector_AE5AF5_0" lane="AE5AF5_0" pos="51.17" freq="900" file="NUL" /><e1Detector id="Detector_AE6AD6_0" lane="AE6AD6_0" pos="51.17" freq="900" file="NUL" /><e1Detector id="Detector_AE6AE5_0" lane="AE6AE5_0" pos="116.82" freq="900" file="NUL" /><e1Detector id="Detector_AE6AE7_0" lane="AE6AE7_0" pos="116.82" freq="900" file="NUL" /><e1Detector id="Detector_AE6AF6_0" lane="AE6AF6_0" pos="51.17" freq="900" file="NUL" /><e1Detector id="Detector_AE7AD7_0" lane="AE7AD7_0" pos="51.17" freq="900" file="NUL" /><e1Detector id="Detector_AE7AE6_0" lane="AE7AE6_0" pos="116.82" freq="900" file="NUL" /><e1Detector id="Detector_AE7AF7_0" lane="AE7AF7_0" pos="51.17" freq="900" file="NUL" /><e1Detector id="Detector_AF0AE0_0" lane="AF0AE0_0" pos="51.17" freq="900" file="NUL" /><e1Detector id="Detector_AF0AF1_0" lane="AF0AF1_0" pos="116.82" freq="900" file="NUL" /><e1Detector id="Detector_AF0AG0_0" lane="AF0AG0_0" pos="51.17" freq="900" file="NUL" /><e1Detector id="Detector_AF1AE1_0" lane="AF1AE1_0" pos="51.17" freq="900" file="NUL" /><e1Detector id="Detector_AF1AF0_0" lane="AF1AF0_0" pos="116.82" freq="900" file="NUL" /><e1Detector id="Detector_AF1AF2_0" lane="AF1AF2_0" pos="116.82" freq="900" file="NUL" /><e1Detector id="Detector_AF1AG1_0" lane="AF1AG1_0" pos="51.17" freq="900" file="NUL" /><e1Detector id="Detector_AF2AE2_0" lane="AF2AE2_0" pos="51.17" freq="900" file="NUL" /><e1Detector id="Detector_AF2AF1_0" lane="AF2AF1_0" pos="116.82" freq="900" file="NUL" /><e1Detector id="Detector_AF2AF3_0" lane="AF2AF3_0" pos="116.82" freq="900" file="NUL" /><e1Detector id="Detector_AF2AG2_0" lane="AF2AG2_0" pos="51.17" freq="900" file="NUL" /><e1Detector id="Detector_AF3AE3_0" lane="AF3AE3_0" pos="51.17" freq="900" file="NUL" /><e1Detector id="Detector_AF3AF2_0" lane="AF3AF2_0" pos="116.82" freq="900" file="NUL" /><e1Detector id="Detector_AF3AF4_0" lane="AF3AF4_0" pos="116.82" freq="900" file="NUL" /><e1Detector id="Detector_AF3AG3_0" lane="AF3AG3_0" pos="51.17" freq="900" file="NUL" /><e1Detector id="Detector_AF4AE4_0" lane="AF4AE4_0" pos="51.17" freq="900" file="NUL" /><e1Detector id="Detector_AF4AF3_0" lane="AF4AF3_0" pos="116.82" freq="900" file="NUL" /><e1Detector id="Detector_AF4AF5_0" lane="AF4AF5_0" pos="116.82" freq="900" file="NUL" /><e1Detector id="Detector_AF4AG4_0" lane="AF4AG4_0" pos="51.17" freq="900" file="NUL" /><e1Detector id="Detector_AF5AE5_0" lane="AF5AE5_0" pos="51.17" freq="900" file="NUL" /><e1Detector id="Detector_AF5AF4_0" lane="AF5AF4_0" pos="116.82" freq="900" file="NUL" /><e1Detector id="Detector_AF5AF6_0" lane="AF5AF6_0" pos="116.82" freq="900" file="NUL" /><e1Detector id="Detector_AF5AG5_0" lane="AF5AG5_0" pos="51.17" freq="900" file="NUL" /><e1Detector id="Detector_AF6AE6_0" lane="AF6AE6_0" pos="51.17" freq="900" file="NUL" /><e1Detector id="Detector_AF6AF5_0" lane="AF6AF5_0" pos="116.82" freq="900" file="NUL" /><e1Detector id="Detector_AF6AF7_0" lane="AF6AF7_0" pos="116.82" freq="900" file="NUL" /><e1Detector id="Detector_AF6AG6_0" lane="AF6AG6_0" pos="51.17" freq="900" file="NUL" /><e1Detector id="Detector_AF7AE7_0" lane="AF7AE7_0" pos="51.17" freq="900" file="NUL" /><e1Detector id="Detector_AF7AF6_0" lane="AF7AF6_0" pos="116.82" freq="900" file="NUL" /><e1Detector id="Detector_AF7AG7_0" lane="AF7AG7_0" pos="51.17" freq="900" file="NUL" /><e1Detector id="Detector_AG0AF0_0" lane="AG0AF0_0" pos="51.17" freq="900" file="NUL" /><e1Detector id="Detector_AG0AG1_0" lane="AG0AG1_0" pos="116.82" freq="900" file="NUL" /><e1Detector id="Detector_AG0AH0_0" lane="AG0AH0_0" pos="51.17" freq="900" file="NUL" /><e1Detector id="Detector_AG1AF1_0" lane="AG1AF1_0" pos="51.17" freq="900" file="NUL" /><e1Detector id="Detector_AG1AG0_0" lane="AG1AG0_0" pos="116.82" freq="900" file="NUL" /><e1Detector id="Detector_AG1AG2_0" lane="AG1AG2_0" pos="116.82" freq="900" file="NUL" /><e1Detector id="Detector_AG1AH1_0" lane="AG1AH1_0" pos="51.17" freq="900" file="NUL" /><e1Detector id="Detector_AG2AF2_0" lane="AG2AF2_0" pos="51.17" freq="900" file="NUL" /><e1Detector id="Detector_AG2AG1_0" lane="AG2AG1_0" pos="116.82" freq="900" file="NUL" /><e1Detector id="Detector_AG2AG3_0" lane="AG2AG3_0" pos="116.82" freq="900" file="NUL" /><e1Detector id="Detector_AG2AH2_0" lane="AG2AH2_0" pos="51.17" freq="900" file="NUL" /><e1Detector id="Detector_AG3AF3_0" lane="AG3AF3_0" pos="51.17" freq="900" file="NUL" /><e1Detector id="Detector_AG3AG2_0" lane="AG3AG2_0" pos="116.82" freq="900" file="NUL" /><e1Detector id="Detector_AG3AG4_0" lane="AG3AG4_0" pos="116.82" freq="900" file="NUL" /><e1Detector id="Detector_AG3AH3_0" lane="AG3AH3_0" pos="51.17" freq="900" file="NUL" /><e1Detector id="Detector_AG4AF4_0" lane="AG4AF4_0" pos="51.17" freq="900" file="NUL" /><e1Detector id="Detector_AG4AG3_0" lane="AG4AG3_0" pos="116.82" freq="900" file="NUL" /><e1Detector id="Detector_AG4AG5_0" lane="AG4AG5_0" pos="116.82" freq="900" file="NUL" /><e1Detector id="Detector_AG4AH4_0" lane="AG4AH4_0" pos="51.17" freq="900" file="NUL" /><e1Detector id="Detector_AG5AF5_0" lane="AG5AF5_0" pos="51.17" freq="900" file="NUL" /><e1Detector id="Detector_AG5AG4_0" lane="AG5AG4_0" pos="116.82" freq="900" file="NUL" /><e1Detector id="Detector_AG5AG6_0" lane="AG5AG6_0" pos="116.82" freq="900" file="NUL" /><e1Detector id="Detector_AG5AH5_0" lane="AG5AH5_0" pos="51.17" freq="900" file="NUL" /><e1Detector id="Detector_AG6AF6_0" lane="AG6AF6_0" pos="51.17" freq="900" file="NUL" /><e1Detector id="Detector_AG6AG5_0" lane="AG6AG5_0" pos="116.82" freq="900" file="NUL" /><e1Detector id="Detector_AG6AG7_0" lane="AG6AG7_0" pos="116.82" freq="900" file="NUL" /><e1Detector id="Detector_AG6AH6_0" lane="AG6AH6_0" pos="51.17" freq="900" file="NUL" /><e1Detector id="Detector_AG7AF7_0" lane="AG7AF7_0" pos="51.17" freq="900" file="NUL" /><e1Detector id="Detector_AG7AG6_0" lane="AG7AG6_0" pos="116.82" freq="900" file="NUL" /><e1Detector id="Detector_AG7AH7_0" lane="AG7AH7_0" pos="51.17" freq="900" file="NUL" /><e1Detector id="Detector_AH0AG0_0" lane="AH0AG0_0" pos="51.17" freq="900" file="NUL" /><e1Detector id="Detector_AH0AH1_0" lane="AH0AH1_0" pos="116.82" freq="900" file="NUL" /><e1Detector id="Detector_AH0AI0_0" lane="AH0AI0_0" pos="51.17" freq="900" file="NUL" /><e1Detector id="Detector_AH1AG1_0" lane="AH1AG1_0" pos="51.17" freq="900" file="NUL" /><e1Detector id="Detector_AH1AH0_0" lane="AH1AH0_0" pos="116.82" freq="900" file="NUL" /><e1Detector id="Detector_AH1AH2_0" lane="AH1AH2_0" pos="116.82" freq="900" file="NUL" /><e1Detector id="Detector_AH1AI1_0" lane="AH1AI1_0" pos="51.17" freq="900" file="NUL" /><e1Detector id="Detector_AH2AG2_0" lane="AH2AG2_0" pos="51.17" freq="900" file="NUL" /><e1Detector id="Detector_AH2AH1_0" lane="AH2AH1_0" pos="116.82" freq="900" file="NUL" /><e1Detector id="Detector_AH2AH3_0" lane="AH2AH3_0" pos="116.82" freq="900" file="NUL" /><e1Detector id="Detector_AH2AI2_0" lane="AH2AI2_0" pos="51.17" freq="900" file="NUL" /><e1Detector id="Detector_AH3AG3_0" lane="AH3AG3_0" pos="51.17" freq="900" file="NUL" /><e1Detector id="Detector_AH3AH2_0" lane="AH3AH2_0" pos="116.82" freq="900" file="NUL" /><e1Detector id="Detector_AH3AH4_0" lane="AH3AH4_0" pos="116.82" freq="900" file="NUL" /><e1Detector id="Detector_AH3AI3_0" lane="AH3AI3_0" pos="51.17" freq="900" file="NUL" /><e1Detector id="Detector_AH4AG4_0" lane="AH4AG4_0" pos="51.17" freq="900" file="NUL" /><e1Detector id="Detector_AH4AH3_0" lane="AH4AH3_0" pos="116.82" freq="900" file="NUL" /><e1Detector id="Detector_AH4AH5_0" lane="AH4AH5_0" pos="116.82" freq="900" file="NUL" /><e1Detector id="Detector_AH4AI4_0" lane="AH4AI4_0" pos="51.17" freq="900" file="NUL" /><e1Detector id="Detector_AH5AG5_0" lane="AH5AG5_0" pos="51.17" freq="900" file="NUL" /><e1Detector id="Detector_AH5AH4_0" lane="AH5AH4_0" pos="116.82" freq="900" file="NUL" /><e1Detector id="Detector_AH5AH6_0" lane="AH5AH6_0" pos="116.82" freq="900" file="NUL" /><e1Detector id="Detector_AH5AI5_0" lane="AH5AI5_0" pos="51.17" freq="900" file="NUL" /><e1Detector id="Detector_AH6AG6_0" lane="AH6AG6_0" pos="51.17" freq="900" file="NUL" /><e1Detector id="Detector_AH6AH5_0" lane="AH6AH5_0" pos="116.82" freq="900" file="NUL" /><e1Detector id="Detector_AH6AH7_0" lane="AH6AH7_0" pos="116.82" freq="900" file="NUL" /><e1Detector id="Detector_AH6AI6_0" lane="AH6AI6_0" pos="51.17" freq="900" file="NUL" /><e1Detector id="Detector_AH7AG7_0" lane="AH7AG7_0" pos="51.17" freq="900" file="NUL" /><e1Detector id="Detector_AH7AH6_0" lane="AH7AH6_0" pos="116.82" freq="900" file="NUL" /><e1Detector id="Detector_AH7AI7_0" lane="AH7AI7_0" pos="51.17" freq="900" file="NUL" /><e1Detector id="Detector_AI0AH0_0" lane="AI0AH0_0" pos="51.17" freq="900" file="NUL" /><e1Detector id="Detector_AI0AI1_0" lane="AI0AI1_0" pos="116.82" freq="900" file="NUL" /><e1Detector id="Detector_AI0AJ0_0" lane="AI0AJ0_0" pos="51.17" freq="900" file="NUL" /><e1Detector id="Detector_AI1AH1_0" lane="AI1AH1_0" pos="51.17" freq="900" file="NUL" /><e1Detector id="Detector_AI1AI0_0" lane="AI1AI0_0" pos="116.82" freq="900" file="NUL" /><e1Detector id="Detector_AI1AI2_0" lane="AI1AI2_0" pos="116.82" freq="900" file="NUL" /><e1Detector id="Detector_AI1AJ1_0" lane="AI1AJ1_0" pos="51.17" freq="900" file="NUL" /><e1Detector id="Detector_AI2AH2_0" lane="AI2AH2_0" pos="51.17" freq="900" file="NUL" /><e1Detector id="Detector_AI2AI1_0" lane="AI2AI1_0" pos="116.82" freq="900" file="NUL" /><e1Detector id="Detector_AI2AI3_0" lane="AI2AI3_0" pos="116.82" freq="900" file="NUL" /><e1Detector id="Detector_AI2AJ2_0" lane="AI2AJ2_0" pos="51.17" freq="900" file="NUL" /><e1Detector id="Detector_AI3AH3_0" lane="AI3AH3_0" pos="51.17" freq="900" file="NUL" /><e1Detector id="Detector_AI3AI2_0" lane="AI3AI2_0" pos="116.82" freq="900" file="NUL" /><e1Detector id="Detector_AI3AI4_0" lane="AI3AI4_0" pos="116.82" freq="900" file="NUL" /><e1Detector id="Detector_AI3AJ3_0" lane="AI3AJ3_0" pos="51.17" freq="900" file="NUL" /><e1Detector id="Detector_AI4AH4_0" lane="AI4AH4_0" pos="51.17" freq="900" file="NUL" /><e1Detector id="Detector_AI4AI3_0" lane="AI4AI3_0" pos="116.82" freq="900" file="NUL" /><e1Detector id="Detector_AI4AI5_0" lane="AI4AI5_0" pos="116.82" freq="900" file="NUL" /><e1Detector id="Detector_AI4AJ4_0" lane="AI4AJ4_0" pos="51.17" freq="900" file="NUL" /><e1Detector id="Detector_AI5AH5_0" lane="AI5AH5_0" pos="51.17" freq="900" file="NUL" /><e1Detector id="Detector_AI5AI4_0" lane="AI5AI4_0" pos="116.82" freq="900" file="NUL" /><e1Detector id="Detector_AI5AI6_0" lane="AI5AI6_0" pos="116.82" freq="900" file="NUL" /><e1Detector id="Detector_AI5AJ5_0" lane="AI5AJ5_0" pos="51.17" freq="900" file="NUL" /><e1Detector id="Detector_AI6AH6_0" lane="AI6AH6_0" pos="51.17" freq="900" file="NUL" /><e1Detector id="Detector_AI6AI5_0" lane="AI6AI5_0" pos="116.82" freq="900" file="NUL" /><e1Detector id="Detector_AI6AI7_0" lane="AI6AI7_0" pos="116.82" freq="900" file="NUL" /><e1Detector id="Detector_AI6AJ6_0" lane="AI6AJ6_0" pos="51.17" freq="900" file="NUL" /><e1Detector id="Detector_AI7AH7_0" lane="AI7AH7_0" pos="51.17" freq="900" file="NUL" /><e1Detector id="Detector_AI7AI6_0" lane="AI7AI6_0" pos="116.82" freq="900" file="NUL" /><e1Detector id="Detector_AI7AJ7_0" lane="AI7AJ7_0" pos="51.17" freq="900" file="NUL" /><e1Detector id="Detector_AJ0AI0_0" lane="AJ0AI0_0" pos="51.17" freq="900" file="NUL" /><e1Detector id="Detector_AJ0AJ1_0" lane="AJ0AJ1_0" pos="116.82" freq="900" file="NUL" /><e1Detector id="Detector_AJ0AK0_0" lane="AJ0AK0_0" pos="51.17" freq="900" file="NUL" /><e1Detector id="Detector_AJ1AI1_0" lane="AJ1AI1_0" pos="51.17" freq="900" file="NUL" /><e1Detector id="Detector_AJ1AJ0_0" lane="AJ1AJ0_0" pos="116.82" freq="900" file="NUL" /><e1Detector id="Detector_AJ1AJ2_0" lane="AJ1AJ2_0" pos="116.82" freq="900" file="NUL" /><e1Detector id="Detector_AJ1AK1_0" lane="AJ1AK1_0" pos="51.17" freq="900" file="NUL" /><e1Detector id="Detector_AJ2AI2_0" lane="AJ2AI2_0" pos="51.17" freq="900" file="NUL" /><e1Detector id="Detector_AJ2AJ1_0" lane="AJ2AJ1_0" pos="116.82" freq="900" file="NUL" /><e1Detector id="Detector_AJ2AJ3_0" lane="AJ2AJ3_0" pos="116.82" freq="900" file="NUL" /><e1Detector id="Detector_AJ2AK2_0" lane="AJ2AK2_0" pos="51.17" freq="900" file="NUL" /><e1Detector id="Detector_AJ3AI3_0" lane="AJ3AI3_0" pos="51.17" freq="900" file="NUL" /><e1Detector id="Detector_AJ3AJ2_0" lane="AJ3AJ2_0" pos="116.82" freq="900" file="NUL" /><e1Detector id="Detector_AJ3AJ4_0" lane="AJ3AJ4_0" pos="116.82" freq="900" file="NUL" /><e1Detector id="Detector_AJ3AK3_0" lane="AJ3AK3_0" pos="51.17" freq="900" file="NUL" /><e1Detector id="Detector_AJ4AI4_0" lane="AJ4AI4_0" pos="51.17" freq="900" file="NUL" /><e1Detector id="Detector_AJ4AJ3_0" lane="AJ4AJ3_0" pos="116.82" freq="900" file="NUL" /><e1Detector id="Detector_AJ4AJ5_0" lane="AJ4AJ5_0" pos="116.82" freq="900" file="NUL" /><e1Detector id="Detector_AJ4AK4_0" lane="AJ4AK4_0" pos="51.17" freq="900" file="NUL" /><e1Detector id="Detector_AJ5AI5_0" lane="AJ5AI5_0" pos="51.17" freq="900" file="NUL" /><e1Detector id="Detector_AJ5AJ4_0" lane="AJ5AJ4_0" pos="116.82" freq="900" file="NUL" /><e1Detector id="Detector_AJ5AJ6_0" lane="AJ5AJ6_0" pos="116.82" freq="900" file="NUL" /><e1Detector id="Detector_AJ5AK5_0" lane="AJ5AK5_0" pos="51.17" freq="900" file="NUL" /><e1Detector id="Detector_AJ6AI6_0" lane="AJ6AI6_0" pos="51.17" freq="900" file="NUL" /><e1Detector id="Detector_AJ6AJ5_0" lane="AJ6AJ5_0" pos="116.82" freq="900" file="NUL" /><e1Detector id="Detector_AJ6AJ7_0" lane="AJ6AJ7_0" pos="116.82" freq="900" file="NUL" /><e1Detector id="Detector_AJ6AK6_0" lane="AJ6AK6_0" pos="51.17" freq="900" file="NUL" /><e1Detector id="Detector_AJ7AI7_0" lane="AJ7AI7_0" pos="51.17" freq="900" file="NUL" /><e1Detector id="Detector_AJ7AJ6_0" lane="AJ7AJ6_0" pos="116.82" freq="900" file="NUL" /><e1Detector id="Detector_AJ7AK7_0" lane="AJ7AK7_0" pos="51.17" freq="900" file="NUL" /><e1Detector id="Detector_AK0AJ0_0" lane="AK0AJ0_0" pos="51.17" freq="900" file="NUL" /><e1Detector id="Detector_AK0AK1_0" lane="AK0AK1_0" pos="116.82" freq="900" file="NUL" /><e1Detector id="Detector_AK0AL0_0" lane="AK0AL0_0" pos="51.17" freq="900" file="NUL" /><e1Detector id="Detector_AK1AJ1_0" lane="AK1AJ1_0" pos="51.17" freq="900" file="NUL" /><e1Detector id="Detector_AK1AK0_0" lane="AK1AK0_0" pos="116.82" freq="900" file="NUL" /><e1Detector id="Detector_AK1AK2_0" lane="AK1AK2_0" pos="116.82" freq="900" file="NUL" /><e1Detector id="Detector_AK1AL1_0" lane="AK1AL1_0" pos="51.17" freq="900" file="NUL" /><e1Detector id="Detector_AK2AJ2_0" lane="AK2AJ2_0" pos="51.17" freq="900" file="NUL" /><e1Detector id="Detector_AK2AK1_0" lane="AK2AK1_0" pos="116.82" freq="900" file="NUL" /><e1Detector id="Detector_AK2AK3_0" lane="AK2AK3_0" pos="116.82" freq="900" file="NUL" /><e1Detector id="Detector_AK2AL2_0" lane="AK2AL2_0" pos="51.17" freq="900" file="NUL" /><e1Detector id="Detector_AK3AJ3_0" lane="AK3AJ3_0" pos="51.17" freq="900" file="NUL" /><e1Detector id="Detector_AK3AK2_0" lane="AK3AK2_0" pos="116.82" freq="900" file="NUL" /><e1Detector id="Detector_AK3AK4_0" lane="AK3AK4_0" pos="116.82" freq="900" file="NUL" /><e1Detector id="Detector_AK3AL3_0" lane="AK3AL3_0" pos="51.17" freq="900" file="NUL" /><e1Detector id="Detector_AK4AJ4_0" lane="AK4AJ4_0" pos="51.17" freq="900" file="NUL" /><e1Detector id="Detector_AK4AK3_0" lane="AK4AK3_0" pos="116.82" freq="900" file="NUL" /><e1Detector id="Detector_AK4AK5_0" lane="AK4AK5_0" pos="116.82" freq="900" file="NUL" /><e1Detector id="Detector_AK4AL4_0" lane="AK4AL4_0" pos="51.17" freq="900" file="NUL" /><e1Detector id="Detector_AK5AJ5_0" lane="AK5AJ5_0" pos="51.17" freq="900" file="NUL" /><e1Detector id="Detector_AK5AK4_0" lane="AK5AK4_0" pos="116.82" freq="900" file="NUL" /><e1Detector id="Detector_AK5AK6_0" lane="AK5AK6_0" pos="116.82" freq="900" file="NUL" /><e1Detector id="Detector_AK5AL5_0" lane="AK5AL5_0" pos="51.17" freq="900" file="NUL" /><e1Detector id="Detector_AK6AJ6_0" lane="AK6AJ6_0" pos="51.17" freq="900" file="NUL" /><e1Detector id="Detector_AK6AK5_0" lane="AK6AK5_0" pos="116.82" freq="900" file="NUL" /><e1Detector id="Detector_AK6AK7_0" lane="AK6AK7_0" pos="116.82" freq="900" file="NUL" /><e1Detector id="Detector_AK6AL6_0" lane="AK6AL6_0" pos="51.17" freq="900" file="NUL" /><e1Detector id="Detector_AK7AJ7_0" lane="AK7AJ7_0" pos="51.17" freq="900" file="NUL" /><e1Detector id="Detector_AK7AK6_0" lane="AK7AK6_0" pos="116.82" freq="900" file="NUL" /><e1Detector id="Detector_AK7AL7_0" lane="AK7AL7_0" pos="51.17" freq="900" file="NUL" /><e1Detector id="Detector_AL0AK0_0" lane="AL0AK0_0" pos="51.17" freq="900" file="NUL" /><e1Detector id="Detector_AL0AL1_0" lane="AL0AL1_0" pos="116.82" freq="900" file="NUL" /><e1Detector id="Detector_AL0AM0_0" lane="AL0AM0_0" pos="51.17" freq="900" file="NUL" /><e1Detector id="Detector_AL1AK1_0" lane="AL1AK1_0" pos="51.17" freq="900" file="NUL" /><e1Detector id="Detector_AL1AL0_0" lane="AL1AL0_0" pos="116.82" freq="900" file="NUL" /><e1Detector id="Detector_AL1AL2_0" lane="AL1AL2_0" pos="116.82" freq="900" file="NUL" /><e1Detector id="Detector_AL1AM1_0" lane="AL1AM1_0" pos="51.17" freq="900" file="NUL" /><e1Detector id="Detector_AL2AK2_0" lane="AL2AK2_0" pos="51.17" freq="900" file="NUL" /><e1Detector id="Detector_AL2AL1_0" lane="AL2AL1_0" pos="116.82" freq="900" file="NUL" /><e1Detector id="Detector_AL2AL3_0" lane="AL2AL3_0" pos="116.82" freq="900" file="NUL" /><e1Detector id="Detector_AL2AM2_0" lane="AL2AM2_0" pos="51.17" freq="900" file="NUL" /><e1Detector id="Detector_AL3AK3_0" lane="AL3AK3_0" pos="51.17" freq="900" file="NUL" /><e1Detector id="Detector_AL3AL2_0" lane="AL3AL2_0" pos="116.82" freq="900" file="NUL" /><e1Detector id="Detector_AL3AL4_0" lane="AL3AL4_0" pos="116.82" freq="900" file="NUL" /><e1Detector id="Detector_AL3AM3_0" lane="AL3AM3_0" pos="51.17" freq="900" file="NUL" /><e1Detector id="Detector_AL4AK4_0" lane="AL4AK4_0" pos="51.17" freq="900" file="NUL" /><e1Detector id="Detector_AL4AL3_0" lane="AL4AL3_0" pos="116.82" freq="900" file="NUL" /><e1Detector id="Detector_AL4AL5_0" lane="AL4AL5_0" pos="116.82" freq="900" file="NUL" /><e1Detector id="Detector_AL4AM4_0" lane="AL4AM4_0" pos="51.17" freq="900" file="NUL" /><e1Detector id="Detector_AL5AK5_0" lane="AL5AK5_0" pos="51.17" freq="900" file="NUL" /><e1Detector id="Detector_AL5AL4_0" lane="AL5AL4_0" pos="116.82" freq="900" file="NUL" /><e1Detector id="Detector_AL5AL6_0" lane="AL5AL6_0" pos="116.82" freq="900" file="NUL" /><e1Detector id="Detector_AL5AM5_0" lane="AL5AM5_0" pos="51.17" freq="900" file="NUL" /><e1Detector id="Detector_AL6AK6_0" lane="AL6AK6_0" pos="51.17" freq="900" file="NUL" /><e1Detector id="Detector_AL6AL5_0" lane="AL6AL5_0" pos="116.82" freq="9