<?xml version="1.0" encoding="UTF-8"?>

<!-- generated on 2021-11-30 14:43:43 by Eclipse SUMO netgenerate Version 1.9.2
<configuration xmlns:xsi="http://www.w3.org/2001/XMLSchema-instance" xsi:noNamespaceSchemaLocation="http://sumo.dlr.de/xsd/netgenerateConfiguration.xsd">

    <grid_network>
        <grid value="true"/>
        <grid.x-number value="40"/>
        <grid.y-number value="8"/>
        <grid.x-length value="85.57"/>
        <grid.y-length value="151.22"/>
    </grid_network>

    <output>
        <output-file value="Manhatan-Abstract-Generated.net.xml"/>
    </output>

    <building_defaults>
        <default-junction-type value="traffic_light"/>
    </building_defaults>

    <junctions>
        <no-turnarounds value="true"/>
    </junctions>

</configuration>
-->

<net version="1.9" junctionCornerDetail="5" limitTurnSpeed="5.50" xmlns:xsi="http://www.w3.org/2001/XMLSchema-instance" xsi:noNamespaceSchemaLocation="http://sumo.dlr.de/xsd/net_file.xsd">

    <location netOffset="0.00,0.00" convBoundary="0.00,0.00,3337.23,1058.54" origBoundary="0.00,0.00,3337.23,1058.54" projParameter="!"/>

    <edge id=":AA0_0" function="internal">
        <lane id=":AA0_0_0" index="0" speed="6.08" length="7.74" shape="-1.60,3.20 -1.30,1.10 -0.40,-0.40 1.10,-1.30 3.20,-1.60"/>
    </edge>
    <edge id=":AA0_1" function="internal">
        <lane id=":AA0_1_0" index="0" speed="3.90" length="2.58" shape="3.20,1.60 2.50,1.70 2.00,2.00 1.70,2.50 1.60,3.20"/>
    </edge>
    <edge id=":AA1_0" function="internal">
        <lane id=":AA1_0_0" index="0" speed="13.89" length="14.40" shape="-1.60,158.42 -1.60,144.02"/>
    </edge>
    <edge id=":AA1_1" function="internal">
        <lane id=":AA1_1_0" index="0" speed="8.00" length="5.93" shape="-1.60,158.42 -1.05,154.57 -0.00,152.82"/>
    </edge>
    <edge id=":AA1_6" function="internal">
        <lane id=":AA1_6_0" index="0" speed="8.00" length="8.26" shape="-0.00,152.82 0.60,151.82 3.35,150.17 7.20,149.62"/>
    </edge>
    <edge id=":AA1_2" function="internal">
        <lane id=":AA1_2_0" index="0" speed="6.51" length="9.03" shape="7.20,152.82 4.75,153.17 3.00,154.22 1.95,155.97 1.60,158.42"/>
    </edge>
    <edge id=":AA1_3" function="internal">
        <lane id=":AA1_3_0" index="0" speed="8.00" length="14.19" shape="7.20,152.82 3.35,152.27 0.60,150.62 -1.05,147.87 -1.60,144.02"/>
    </edge>
    <edge id=":AA1_4" function="internal">
        <lane id=":AA1_4_0" index="0" speed="6.51" length="9.03" shape="1.60,144.02 1.95,146.47 3.00,148.22 4.75,149.27 7.20,149.62"/>
    </edge>
    <edge id=":AA1_5" function="internal">
        <lane id=":AA1_5_0" index="0" speed="13.89" length="14.40" shape="1.60,144.02 1.60,158.42"/>
    </edge>
    <edge id=":AA2_0" function="internal">
        <lane id=":AA2_0_0" index="0" speed="13.89" length="14.40" shape="-1.60,309.64 -1.60,295.24"/>
    </edge>
    <edge id=":AA2_1" function="internal">
        <lane id=":AA2_1_0" index="0" speed="8.00" length="5.93" shape="-1.60,309.64 -1.05,305.79 0.00,304.04"/>
    </edge>
    <edge id=":AA2_6" function="internal">
        <lane id=":AA2_6_0" index="0" speed="8.00" length="8.26" shape="0.00,304.04 0.60,303.04 3.35,301.39 7.20,300.84"/>
    </edge>
    <edge id=":AA2_2" function="internal">
        <lane id=":AA2_2_0" index="0" speed="6.51" length="9.03" shape="7.20,304.04 4.75,304.39 3.00,305.44 1.95,307.19 1.60,309.64"/>
    </edge>
    <edge id=":AA2_3" function="internal">
        <lane id=":AA2_3_0" index="0" speed="8.00" length="14.19" shape="7.20,304.04 3.35,303.49 0.60,301.84 -1.05,299.09 -1.60,295.24"/>
    </edge>
    <edge id=":AA2_4" function="internal">
        <lane id=":AA2_4_0" index="0" speed="6.51" length="9.03" shape="1.60,295.24 1.95,297.69 3.00,299.44 4.75,300.49 7.20,300.84"/>
    </edge>
    <edge id=":AA2_5" function="internal">
        <lane id=":AA2_5_0" index="0" speed="13.89" length="14.40" shape="1.60,295.24 1.60,309.64"/>
    </edge>
    <edge id=":AA3_0" function="internal">
        <lane id=":AA3_0_0" index="0" speed="13.89" length="14.40" shape="-1.60,460.86 -1.60,446.46"/>
    </edge>
    <edge id=":AA3_1" function="internal">
        <lane id=":AA3_1_0" index="0" speed="8.00" length="5.93" shape="-1.60,460.86 -1.05,457.01 -0.00,455.26"/>
    </edge>
    <edge id=":AA3_6" function="internal">
        <lane id=":AA3_6_0" index="0" speed="8.00" length="8.26" shape="-0.00,455.26 0.60,454.26 3.35,452.61 7.20,452.06"/>
    </edge>
    <edge id=":AA3_2" function="internal">
        <lane id=":AA3_2_0" index="0" speed="6.51" length="9.03" shape="7.20,455.26 4.75,455.61 3.00,456.66 1.95,458.41 1.60,460.86"/>
    </edge>
    <edge id=":AA3_3" function="internal">
        <lane id=":AA3_3_0" index="0" speed="8.00" length="14.19" shape="7.20,455.26 3.35,454.71 0.60,453.06 -1.05,450.31 -1.60,446.46"/>
    </edge>
    <edge id=":AA3_4" function="internal">
        <lane id=":AA3_4_0" index="0" speed="6.51" length="9.03" shape="1.60,446.46 1.95,448.91 3.00,450.66 4.75,451.71 7.20,452.06"/>
    </edge>
    <edge id=":AA3_5" function="internal">
        <lane id=":AA3_5_0" index="0" speed="13.89" length="14.40" shape="1.60,446.46 1.60,460.86"/>
    </edge>
    <edge id=":AA4_0" function="internal">
        <lane id=":AA4_0_0" index="0" speed="13.89" length="14.40" shape="-1.60,612.08 -1.60,597.68"/>
    </edge>
    <edge id=":AA4_1" function="internal">
        <lane id=":AA4_1_0" index="0" speed="8.00" length="5.93" shape="-1.60,612.08 -1.05,608.23 -0.00,606.48"/>
    </edge>
    <edge id=":AA4_6" function="internal">
        <lane id=":AA4_6_0" index="0" speed="8.00" length="8.26" shape="-0.00,606.48 0.60,605.48 3.35,603.83 7.20,603.28"/>
    </edge>
    <edge id=":AA4_2" function="internal">
        <lane id=":AA4_2_0" index="0" speed="6.51" length="9.03" shape="7.20,606.48 4.75,606.83 3.00,607.88 1.95,609.63 1.60,612.08"/>
    </edge>
    <edge id=":AA4_3" function="internal">
        <lane id=":AA4_3_0" index="0" speed="8.00" length="14.19" shape="7.20,606.48 3.35,605.93 0.60,604.28 -1.05,601.53 -1.60,597.68"/>
    </edge>
    <edge id=":AA4_4" function="internal">
        <lane id=":AA4_4_0" index="0" speed="6.51" length="9.03" shape="1.60,597.68 1.95,600.13 3.00,601.88 4.75,602.93 7.20,603.28"/>
    </edge>
    <edge id=":AA4_5" function="internal">
        <lane id=":AA4_5_0" index="0" speed="13.89" length="14.40" shape="1.60,597.68 1.60,612.08"/>
    </edge>
    <edge id=":AA5_0" function="internal">
        <lane id=":AA5_0_0" index="0" speed="13.89" length="14.40" shape="-1.60,763.30 -1.60,748.90"/>
    </edge>
    <edge id=":AA5_1" function="internal">
        <lane id=":AA5_1_0" index="0" speed="8.00" length="5.93" shape="-1.60,763.30 -1.05,759.45 -0.00,757.70"/>
    </edge>
    <edge id=":AA5_6" function="internal">
        <lane id=":AA5_6_0" index="0" speed="8.00" length="8.26" shape="-0.00,757.70 0.60,756.70 3.35,755.05 7.20,754.50"/>
    </edge>
    <edge id=":AA5_2" function="internal">
        <lane id=":AA5_2_0" index="0" speed="6.51" length="9.03" shape="7.20,757.70 4.75,758.05 3.00,759.10 1.95,760.85 1.60,763.30"/>
    </edge>
    <edge id=":AA5_3" function="internal">
        <lane id=":AA5_3_0" index="0" speed="8.00" length="14.19" shape="7.20,757.70 3.35,757.15 0.60,755.50 -1.05,752.75 -1.60,748.90"/>
    </edge>
    <edge id=":AA5_4" function="internal">
        <lane id=":AA5_4_0" index="0" speed="6.51" length="9.03" shape="1.60,748.90 1.95,751.35 3.00,753.10 4.75,754.15 7.20,754.50"/>
    </edge>
    <edge id=":AA5_5" function="internal">
        <lane id=":AA5_5_0" index="0" speed="13.89" length="14.40" shape="1.60,748.90 1.60,763.30"/>
    </edge>
    <edge id=":AA6_0" function="internal">
        <lane id=":AA6_0_0" index="0" speed="13.89" length="14.40" shape="-1.60,914.52 -1.60,900.12"/>
    </edge>
    <edge id=":AA6_1" function="internal">
        <lane id=":AA6_1_0" index="0" speed="8.00" length="5.93" shape="-1.60,914.52 -1.05,910.67 -0.00,908.92"/>
    </edge>
    <edge id=":AA6_6" function="internal">
        <lane id=":AA6_6_0" index="0" speed="8.00" length="8.26" shape="-0.00,908.92 0.60,907.92 3.35,906.27 7.20,905.72"/>
    </edge>
    <edge id=":AA6_2" function="internal">
        <lane id=":AA6_2_0" index="0" speed="6.51" length="9.03" shape="7.20,908.92 4.75,909.27 3.00,910.32 1.95,912.07 1.60,914.52"/>
    </edge>
    <edge id=":AA6_3" function="internal">
        <lane id=":AA6_3_0" index="0" speed="8.00" length="14.19" shape="7.20,908.92 3.35,908.37 0.60,906.72 -1.05,903.97 -1.60,900.12"/>
    </edge>
    <edge id=":AA6_4" function="internal">
        <lane id=":AA6_4_0" index="0" speed="6.51" length="9.03" shape="1.60,900.12 1.95,902.57 3.00,904.32 4.75,905.37 7.20,905.72"/>
    </edge>
    <edge id=":AA6_5" function="internal">
        <lane id=":AA6_5_0" index="0" speed="13.89" length="14.40" shape="1.60,900.12 1.60,914.52"/>
    </edge>
    <edge id=":AA7_0" function="internal">
        <lane id=":AA7_0_0" index="0" speed="6.08" length="7.74" shape="3.20,1060.14 1.10,1059.84 -0.40,1058.94 -1.30,1057.44 -1.60,1055.34"/>
    </edge>
    <edge id=":AA7_1" function="internal">
        <lane id=":AA7_1_0" index="0" speed="3.90" length="2.58" shape="1.60,1055.34 1.70,1056.04 2.00,1056.54 2.50,1056.84 3.20,1056.94"/>
    </edge>
    <edge id=":AB0_0" function="internal">
        <lane id=":AB0_0_0" index="0" speed="6.51" length="9.03" shape="83.97,7.20 83.62,4.75 82.57,3.00 80.82,1.95 78.37,1.60"/>
    </edge>
    <edge id=":AB0_1" function="internal">
        <lane id=":AB0_1_0" index="0" speed="8.00" length="14.19" shape="83.97,7.20 84.52,3.35 86.17,0.60 88.92,-1.05 92.77,-1.60"/>
    </edge>
    <edge id=":AB0_2" function="internal">
        <lane id=":AB0_2_0" index="0" speed="6.51" length="9.03" shape="92.77,1.60 90.32,1.95 88.57,3.00 87.52,4.75 87.17,7.20"/>
    </edge>
    <edge id=":AB0_3" function="internal">
        <lane id=":AB0_3_0" index="0" speed="13.89" length="14.40" shape="92.77,1.60 78.37,1.60"/>
    </edge>
    <edge id=":AB0_4" function="internal">
        <lane id=":AB0_4_0" index="0" speed="13.89" length="14.40" shape="78.37,-1.60 92.77,-1.60"/>
    </edge>
    <edge id=":AB0_5" function="internal">
        <lane id=":AB0_5_0" index="0" speed="8.00" length="5.93" shape="78.37,-1.60 82.22,-1.05 83.97,-0.00"/>
    </edge>
    <edge id=":AB0_6" function="internal">
        <lane id=":AB0_6_0" index="0" speed="8.00" length="8.26" shape="83.97,-0.00 84.97,0.60 86.62,3.35 87.17,7.20"/>
    </edge>
    <edge id=":AB1_0" function="internal">
        <lane id=":AB1_0_0" index="0" speed="6.51" length="9.03" shape="83.97,158.42 83.62,155.97 82.57,154.22 80.82,153.17 78.37,152.82"/>
    </edge>
    <edge id=":AB1_1" function="internal">
        <lane id=":AB1_1_0" index="0" speed="13.89" length="14.40" shape="83.97,158.42 83.97,144.02"/>
    </edge>
    <edge id=":AB1_2" function="internal">
        <lane id=":AB1_2_0" index="0" speed="8.00" length="5.93" shape="83.97,158.42 84.52,154.57 85.57,152.82"/>
    </edge>
    <edge id=":AB1_12" function="internal">
        <lane id=":AB1_12_0" index="0" speed="8.00" length="8.26" shape="85.57,152.82 86.17,151.82 88.92,150.17 92.77,149.62"/>
    </edge>
    <edge id=":AB1_3" function="internal">
        <lane id=":AB1_3_0" index="0" speed="6.51" length="9.03" shape="92.77,152.82 90.32,153.17 88.57,154.22 87.52,155.97 87.17,158.42"/>
    </edge>
    <edge id=":AB1_4" function="internal">
        <lane id=":AB1_4_0" index="0" speed="13.89" length="14.40" shape="92.77,152.82 78.37,152.82"/>
    </edge>
    <edge id=":AB1_5" function="internal">
        <lane id=":AB1_5_0" index="0" speed="8.00" length="5.93" shape="92.77,152.82 88.92,152.27 87.17,151.22"/>
    </edge>
    <edge id=":AB1_13" function="internal">
        <lane id=":AB1_13_0" index="0" speed="8.00" length="8.26" shape="87.17,151.22 86.17,150.62 84.52,147.87 83.97,144.02"/>
    </edge>
    <edge id=":AB1_6" function="internal">
        <lane id=":AB1_6_0" index="0" speed="6.51" length="9.03" shape="87.17,144.02 87.52,146.47 88.57,148.22 90.32,149.27 92.77,149.62"/>
    </edge>
    <edge id=":AB1_7" function="internal">
        <lane id=":AB1_7_0" index="0" speed="13.89" length="14.40" shape="87.17,144.02 87.17,158.42"/>
    </edge>
    <edge id=":AB1_8" function="internal">
        <lane id=":AB1_8_0" index="0" speed="8.00" length="5.93" shape="87.17,144.02 86.62,147.87 85.57,149.62"/>
    </edge>
    <edge id=":AB1_14" function="internal">
        <lane id=":AB1_14_0" index="0" speed="8.00" length="8.26" shape="85.57,149.62 84.97,150.62 82.22,152.27 78.37,152.82"/>
    </edge>
    <edge id=":AB1_9" function="internal">
        <lane id=":AB1_9_0" index="0" speed="6.51" length="9.03" shape="78.37,149.62 80.82,149.27 82.57,148.22 83.62,146.47 83.97,144.02"/>
    </edge>
    <edge id=":AB1_10" function="internal">
        <lane id=":AB1_10_0" index="0" speed="13.89" length="14.40" shape="78.37,149.62 92.77,149.62"/>
    </edge>
    <edge id=":AB1_11" function="internal">
        <lane id=":AB1_11_0" index="0" speed="8.00" length="5.93" shape="78.37,149.62 82.22,150.17 83.97,151.22"/>
    </edge>
    <edge id=":AB1_15" function="internal">
        <lane id=":AB1_15_0" index="0" speed="8.00" length="8.26" shape="83.97,151.22 84.97,151.82 86.62,154.57 87.17,158.42"/>
    </edge>
    <edge id=":AB2_0" function="internal">
        <lane id=":AB2_0_0" index="0" speed="6.51" length="9.03" shape="83.97,309.64 83.62,307.19 82.57,305.44 80.82,304.39 78.37,304.04"/>
    </edge>
    <edge id=":AB2_1" function="internal">
        <lane id=":AB2_1_0" index="0" speed="13.89" length="14.40" shape="83.97,309.64 83.97,295.24"/>
    </edge>
    <edge id=":AB2_2" function="internal">
        <lane id=":AB2_2_0" index="0" speed="8.00" length="5.93" shape="83.97,309.64 84.52,305.79 85.57,304.04"/>
    </edge>
    <edge id=":AB2_12" function="internal">
        <lane id=":AB2_12_0" index="0" speed="8.00" length="8.26" shape="85.57,304.04 86.17,303.04 88.92,301.39 92.77,300.84"/>
    </edge>
    <edge id=":AB2_3" function="internal">
        <lane id=":AB2_3_0" index="0" speed="6.51" length="9.03" shape="92.77,304.04 90.32,304.39 88.57,305.44 87.52,307.19 87.17,309.64"/>
    </edge>
    <edge id=":AB2_4" function="internal">
        <lane id=":AB2_4_0" index="0" speed="13.89" length="14.40" shape="92.77,304.04 78.37,304.04"/>
    </edge>
    <edge id=":AB2_5" function="internal">
        <lane id=":AB2_5_0" index="0" speed="8.00" length="5.93" shape="92.77,304.04 88.92,303.49 87.17,302.44"/>
    </edge>
    <edge id=":AB2_13" function="internal">
        <lane id=":AB2_13_0" index="0" speed="8.00" length="8.26" shape="87.17,302.44 86.17,301.84 84.52,299.09 83.97,295.24"/>
    </edge>
    <edge id=":AB2_6" function="internal">
        <lane id=":AB2_6_0" index="0" speed="6.51" length="9.03" shape="87.17,295.24 87.52,297.69 88.57,299.44 90.32,300.49 92.77,300.84"/>
    </edge>
    <edge id=":AB2_7" function="internal">
        <lane id=":AB2_7_0" index="0" speed="13.89" length="14.40" shape="87.17,295.24 87.17,309.64"/>
    </edge>
    <edge id=":AB2_8" function="internal">
        <lane id=":AB2_8_0" index="0" speed="8.00" length="5.93" shape="87.17,295.24 86.62,299.09 85.57,300.84"/>
    </edge>
    <edge id=":AB2_14" function="internal">
        <lane id=":AB2_14_0" index="0" speed="8.00" length="8.26" shape="85.57,300.84 84.97,301.84 82.22,303.49 78.37,304.04"/>
    </edge>
    <edge id=":AB2_9" function="internal">
        <lane id=":AB2_9_0" index="0" speed="6.51" length="9.03" shape="78.37,300.84 80.82,300.49 82.57,299.44 83.62,297.69 83.97,295.24"/>
    </edge>
    <edge id=":AB2_10" function="internal">
        <lane id=":AB2_10_0" index="0" speed="13.89" length="14.40" shape="78.37,300.84 92.77,300.84"/>
    </edge>
    <edge id=":AB2_11" function="internal">
        <lane id=":AB2_11_0" index="0" speed="8.00" length="5.93" shape="78.37,300.84 82.22,301.39 83.97,302.44"/>
    </edge>
    <edge id=":AB2_15" function="internal">
        <lane id=":AB2_15_0" index="0" speed="8.00" length="8.26" shape="83.97,302.44 84.97,303.04 86.62,305.79 87.17,309.64"/>
    </edge>
    <edge id=":AB3_0" function="internal">
        <lane id=":AB3_0_0" index="0" speed="6.51" length="9.03" shape="83.97,460.86 83.62,458.41 82.57,456.66 80.82,455.61 78.37,455.26"/>
    </edge>
    <edge id=":AB3_1" function="internal">
        <lane id=":AB3_1_0" index="0" speed="13.89" length="14.40" shape="83.97,460.86 83.97,446.46"/>
    </edge>
    <edge id=":AB3_2" function="internal">
        <lane id=":AB3_2_0" index="0" speed="8.00" length="5.93" shape="83.97,460.86 84.52,457.01 85.57,455.26"/>
    </edge>
    <edge id=":AB3_12" function="internal">
        <lane id=":AB3_12_0" index="0" speed="8.00" length="8.26" shape="85.57,455.26 86.17,454.26 88.92,452.61 92.77,452.06"/>
    </edge>
    <edge id=":AB3_3" function="internal">
        <lane id=":AB3_3_0" index="0" speed="6.51" length="9.03" shape="92.77,455.26 90.32,455.61 88.57,456.66 87.52,458.41 87.17,460.86"/>
    </edge>
    <edge id=":AB3_4" function="internal">
        <lane id=":AB3_4_0" index="0" speed="13.89" length="14.40" shape="92.77,455.26 78.37,455.26"/>
    </edge>
    <edge id=":AB3_5" function="internal">
        <lane id=":AB3_5_0" index="0" speed="8.00" length="5.93" shape="92.77,455.26 88.92,454.71 87.17,453.66"/>
    </edge>
    <edge id=":AB3_13" function="internal">
        <lane id=":AB3_13_0" index="0" speed="8.00" length="8.26" shape="87.17,453.66 86.17,453.06 84.52,450.31 83.97,446.46"/>
    </edge>
    <edge id=":AB3_6" function="internal">
        <lane id=":AB3_6_0" index="0" speed="6.51" length="9.03" shape="87.17,446.46 87.52,448.91 88.57,450.66 90.32,451.71 92.77,452.06"/>
    </edge>
    <edge id=":AB3_7" function="internal">
        <lane id=":AB3_7_0" index="0" speed="13.89" length="14.40" shape="87.17,446.46 87.17,460.86"/>
    </edge>
    <edge id=":AB3_8" function="internal">
        <lane id=":AB3_8_0" index="0" speed="8.00" length="5.93" shape="87.17,446.46 86.62,450.31 85.57,452.06"/>
    </edge>
    <edge id=":AB3_14" function="internal">
        <lane id=":AB3_14_0" index="0" speed="8.00" length="8.26" shape="85.57,452.06 84.97,453.06 82.22,454.71 78.37,455.26"/>
    </edge>
    <edge id=":AB3_9" function="internal">
        <lane id=":AB3_9_0" index="0" speed="6.51" length="9.03" shape="78.37,452.06 80.82,451.71 82.57,450.66 83.62,448.91 83.97,446.46"/>
    </edge>
    <edge id=":AB3_10" function="internal">
        <lane id=":AB3_10_0" index="0" speed="13.89" length="14.40" shape="78.37,452.06 92.77,452.06"/>
    </edge>
    <edge id=":AB3_11" function="internal">
        <lane id=":AB3_11_0" index="0" speed="8.00" length="5.93" shape="78.37,452.06 82.22,452.61 83.97,453.66"/>
    </edge>
    <edge id=":AB3_15" function="internal">
        <lane id=":AB3_15_0" index="0" speed="8.00" length="8.26" shape="83.97,453.66 84.97,454.26 86.62,457.01 87.17,460.86"/>
    </edge>
    <edge id=":AB4_0" function="internal">
        <lane id=":AB4_0_0" index="0" speed="6.51" length="9.03" shape="83.97,612.08 83.62,609.63 82.57,607.88 80.82,606.83 78.37,606.48"/>
    </edge>
    <edge id=":AB4_1" function="internal">
        <lane id=":AB4_1_0" index="0" speed="13.89" length="14.40" shape="83.97,612.08 83.97,597.68"/>
    </edge>
    <edge id=":AB4_2" function="internal">
        <lane id=":AB4_2_0" index="0" speed="8.00" length="5.93" shape="83.97,612.08 84.52,608.23 85.57,606.48"/>
    </edge>
    <edge id=":AB4_12" function="internal">
        <lane id=":AB4_12_0" index="0" speed="8.00" length="8.26" shape="85.57,606.48 86.17,605.48 88.92,603.83 92.77,603.28"/>
    </edge>
    <edge id=":AB4_3" function="internal">
        <lane id=":AB4_3_0" index="0" speed="6.51" length="9.03" shape="92.77,606.48 90.32,606.83 88.57,607.88 87.52,609.63 87.17,612.08"/>
    </edge>
    <edge id=":AB4_4" function="internal">
        <lane id=":AB4_4_0" index="0" speed="13.89" length="14.40" shape="92.77,606.48 78.37,606.48"/>
    </edge>
    <edge id=":AB4_5" function="internal">
        <lane id=":AB4_5_0" index="0" speed="8.00" length="5.93" shape="92.77,606.48 88.92,605.93 87.17,604.88"/>
    </edge>
    <edge id=":AB4_13" function="internal">
        <lane id=":AB4_13_0" index="0" speed="8.00" length="8.26" shape="87.17,604.88 86.17,604.28 84.52,601.53 83.97,597.68"/>
    </edge>
    <edge id=":AB4_6" function="internal">
        <lane id=":AB4_6_0" index="0" speed="6.51" length="9.03" shape="87.17,597.68 87.52,600.13 88.57,601.88 90.32,602.93 92.77,603.28"/>
    </edge>
    <edge id=":AB4_7" function="internal">
        <lane id=":AB4_7_0" index="0" speed="13.89" length="14.40" shape="87.17,597.68 87.17,612.08"/>
    </edge>
    <edge id=":AB4_8" function="internal">
        <lane id=":AB4_8_0" index="0" speed="8.00" length="5.93" shape="87.17,597.68 86.62,601.53 85.57,603.28"/>
    </edge>
    <edge id=":AB4_14" function="internal">
        <lane id=":AB4_14_0" index="0" speed="8.00" length="8.26" shape="85.57,603.28 84.97,604.28 82.22,605.93 78.37,606.48"/>
    </edge>
    <edge id=":AB4_9" function="internal">
        <lane id=":AB4_9_0" index="0" speed="6.51" length="9.03" shape="78.37,603.28 80.82,602.93 82.57,601.88 83.62,600.13 83.97,597.68"/>
    </edge>
    <edge id=":AB4_10" function="internal">
        <lane id=":AB4_10_0" index="0" speed="13.89" length="14.40" shape="78.37,603.28 92.77,603.28"/>
    </edge>
    <edge id=":AB4_11" function="internal">
        <lane id=":AB4_11_0" index="0" speed="8.00" length="5.93" shape="78.37,603.28 82.22,603.83 83.97,604.88"/>
    </edge>
    <edge id=":AB4_15" function="internal">
        <lane id=":AB4_15_0" index="0" speed="8.00" length="8.26" shape="83.97,604.88 84.97,605.48 86.62,608.23 87.17,612.08"/>
    </edge>
    <edge id=":AB5_0" function="internal">
        <lane id=":AB5_0_0" index="0" speed="6.51" length="9.03" shape="83.97,763.30 83.62,760.85 82.57,759.10 80.82,758.05 78.37,757.70"/>
    </edge>
    <edge id=":AB5_1" function="internal">
        <lane id=":AB5_1_0" index="0" speed="13.89" length="14.40" shape="83.97,763.30 83.97,748.90"/>
    </edge>
    <edge id=":AB5_2" function="internal">
        <lane id=":AB5_2_0" index="0" speed="8.00" length="5.93" shape="83.97,763.30 84.52,759.45 85.57,757.70"/>
    </edge>
    <edge id=":AB5_12" function="internal">
        <lane id=":AB5_12_0" index="0" speed="8.00" length="8.26" shape="85.57,757.70 86.17,756.70 88.92,755.05 92.77,754.50"/>
    </edge>
    <edge id=":AB5_3" function="internal">
        <lane id=":AB5_3_0" index="0" speed="6.51" length="9.03" shape="92.77,757.70 90.32,758.05 88.57,759.10 87.52,760.85 87.17,763.30"/>
    </edge>
    <edge id=":AB5_4" function="internal">
        <lane id=":AB5_4_0" index="0" speed="13.89" length="14.40" shape="92.77,757.70 78.37,757.70"/>
    </edge>
    <edge id=":AB5_5" function="internal">
        <lane id=":AB5_5_0" index="0" speed="8.00" length="5.93" shape="92.77,757.70 88.92,757.15 87.17,756.10"/>
    </edge>
    <edge id=":AB5_13" function="internal">
        <lane id=":AB5_13_0" index="0" speed="8.00" length="8.26" shape="87.17,756.10 86.17,755.50 84.52,752.75 83.97,748.90"/>
    </edge>
    <edge id=":AB5_6" function="internal">
        <lane id=":AB5_6_0" index="0" speed="6.51" length="9.03" shape="87.17,748.90 87.52,751.35 88.57,753.10 90.32,754.15 92.77,754.50"/>
    </edge>
    <edge id=":AB5_7" function="internal">
        <lane id=":AB5_7_0" index="0" speed="13.89" length="14.40" shape="87.17,748.90 87.17,763.30"/>
    </edge>
    <edge id=":AB5_8" function="internal">
        <lane id=":AB5_8_0" index="0" speed="8.00" length="5.93" shape="87.17,748.90 86.62,752.75 85.57,754.50"/>
    </edge>
    <edge id=":AB5_14" function="internal">
        <lane id=":AB5_14_0" index="0" speed="8.00" length="8.26" shape="85.57,754.50 84.97,755.50 82.22,757.15 78.37,757.70"/>
    </edge>
    <edge id=":AB5_9" function="internal">
        <lane id=":AB5_9_0" index="0" speed="6.51" length="9.03" shape="78.37,754.50 80.82,754.15 82.57,753.10 83.62,751.35 83.97,748.90"/>
    </edge>
    <edge id=":AB5_10" function="internal">
        <lane id=":AB5_10_0" index="0" speed="13.89" length="14.40" shape="78.37,754.50 92.77,754.50"/>
    </edge>
    <edge id=":AB5_11" function="internal">
        <lane id=":AB5_11_0" index="0" speed="8.00" length="5.93" shape="78.37,754.50 82.22,755.05 83.97,756.10"/>
    </edge>
    <edge id=":AB5_15" function="internal">
        <lane id=":AB5_15_0" index="0" speed="8.00" length="8.26" shape="83.97,756.10 84.97,756.70 86.62,759.45 87.17,763.30"/>
    </edge>
    <edge id=":AB6_0" function="internal">
        <lane id=":AB6_0_0" index="0" speed="6.51" length="9.03" shape="83.97,914.52 83.62,912.07 82.57,910.32 80.82,909.27 78.37,908.92"/>
    </edge>
    <edge id=":AB6_1" function="internal">
        <lane id=":AB6_1_0" index="0" speed="13.89" length="14.40" shape="83.97,914.52 83.97,900.12"/>
    </edge>
    <edge id=":AB6_2" function="internal">
        <lane id=":AB6_2_0" index="0" speed="8.00" length="5.93" shape="83.97,914.52 84.52,910.67 85.57,908.92"/>
    </edge>
    <edge id=":AB6_12" function="internal">
        <lane id=":AB6_12_0" index="0" speed="8.00" length="8.26" shape="85.57,908.92 86.17,907.92 88.92,906.27 92.77,905.72"/>
    </edge>
    <edge id=":AB6_3" function="internal">
        <lane id=":AB6_3_0" index="0" speed="6.51" length="9.03" shape="92.77,908.92 90.32,909.27 88.57,910.32 87.52,912.07 87.17,914.52"/>
    </edge>
    <edge id=":AB6_4" function="internal">
        <lane id=":AB6_4_0" index="0" speed="13.89" length="14.40" shape="92.77,908.92 78.37,908.92"/>
    </edge>
    <edge id=":AB6_5" function="internal">
        <lane id=":AB6_5_0" index="0" speed="8.00" length="5.93" shape="92.77,908.92 88.92,908.37 87.17,907.32"/>
    </edge>
    <edge id=":AB6_13" function="internal">
        <lane id=":AB6_13_0" index="0" speed="8.00" length="8.26" shape="87.17,907.32 86.17,906.72 84.52,903.97 83.97,900.12"/>
    </edge>
    <edge id=":AB6_6" function="internal">
        <lane id=":AB6_6_0" index="0" speed="6.51" length="9.03" shape="87.17,900.12 87.52,902.57 88.57,904.32 90.32,905.37 92.77,905.72"/>
    </edge>
    <edge id=":AB6_7" function="internal">
        <lane id=":AB6_7_0" index="0" speed="13.89" length="14.40" shape="87.17,900.12 87.17,914.52"/>
    </edge>
    <edge id=":AB6_8" function="internal">
        <lane id=":AB6_8_0" index="0" speed="8.00" length="5.93" shape="87.17,900.12 86.62,903.97 85.57,905.72"/>
    </edge>
    <edge id=":AB6_14" function="internal">
        <lane id=":AB6_14_0" index="0" speed="8.00" length="8.26" shape="85.57,905.72 84.97,906.72 82.22,908.37 78.37,908.92"/>
    </edge>
    <edge id=":AB6_9" function="internal">
        <lane id=":AB6_9_0" index="0" speed="6.51" length="9.03" shape="78.37,905.72 80.82,905.37 82.57,904.32 83.62,902.57 83.97,900.12"/>
    </edge>
    <edge id=":AB6_10" function="internal">
        <lane id=":AB6_10_0" index="0" speed="13.89" length="14.40" shape="78.37,905.72 92.77,905.72"/>
    </edge>
    <edge id=":AB6_11" function="internal">
        <lane id=":AB6_11_0" index="0" speed="8.00" length="5.93" shape="78.37,905.72 82.22,906.27 83.97,907.32"/>
    </edge>
    <edge id=":AB6_15" function="internal">
        <lane id=":AB6_15_0" index="0" speed="8.00" length="8.26" shape="83.97,907.32 84.97,907.92 86.62,910.67 87.17,914.52"/>
    </edge>
    <edge id=":AB7_0" function="internal">
        <lane id=":AB7_0_0" index="0" speed="13.89" length="14.40" shape="92.77,1060.14 78.37,1060.14"/>
    </edge>
    <edge id=":AB7_1" function="internal">
        <lane id=":AB7_1_0" index="0" speed="8.00" length="5.93" shape="92.77,1060.14 88.92,1059.59 87.17,1058.54"/>
    </edge>
    <edge id=":AB7_6" function="internal">
        <lane id=":AB7_6_0" index="0" speed="8.00" length="8.26" shape="87.17,1058.54 86.17,1057.94 84.52,1055.19 83.97,1051.34"/>
    </edge>
    <edge id=":AB7_2" function="internal">
        <lane id=":AB7_2_0" index="0" speed="6.51" length="9.03" shape="87.17,1051.34 87.52,1053.79 88.57,1055.54 90.32,1056.59 92.77,1056.94"/>
    </edge>
    <edge id=":AB7_3" function="internal">
        <lane id=":AB7_3_0" index="0" speed="8.00" length="14.19" shape="87.17,1051.34 86.62,1055.19 84.97,1057.94 82.22,1059.59 78.37,1060.14"/>
    </edge>
    <edge id=":AB7_4" function="internal">
        <lane id=":AB7_4_0" index="0" speed="6.51" length="9.03" shape="78.37,1056.94 80.82,1056.59 82.57,1055.54 83.62,1053.79 83.97,1051.34"/>
    </edge>
    <edge id=":AB7_5" function="internal">
        <lane id=":AB7_5_0" index="0" speed="13.89" length="14.40" shape="78.37,1056.94 92.77,1056.94"/>
    </edge>
    <edge id=":AC0_0" function="internal">
        <lane id=":AC0_0_0" index="0" speed="6.51" length="9.03" shape="169.54,7.20 169.19,4.75 168.14,3.00 166.39,1.95 163.94,1.60"/>
    </edge>
    <edge id=":AC0_1" function="internal">
        <lane id=":AC0_1_0" index="0" speed="8.00" length="14.19" shape="169.54,7.20 170.09,3.35 171.74,0.60 174.49,-1.05 178.34,-1.60"/>
    </edge>
    <edge id=":AC0_2" function="internal">
        <lane id=":AC0_2_0" index="0" speed="6.51" length="9.03" shape="178.34,1.60 175.89,1.95 174.14,3.00 173.09,4.75 172.74,7.20"/>
    </edge>
    <edge id=":AC0_3" function="internal">
        <lane id=":AC0_3_0" index="0" speed="13.89" length="14.40" shape="178.34,1.60 163.94,1.60"/>
    </edge>
    <edge id=":AC0_4" function="internal">
        <lane id=":AC0_4_0" index="0" speed="13.89" length="14.40" shape="163.94,-1.60 178.34,-1.60"/>
    </edge>
    <edge id=":AC0_5" function="internal">
        <lane id=":AC0_5_0" index="0" speed="8.00" length="5.93" shape="163.94,-1.60 167.79,-1.05 169.54,-0.00"/>
    </edge>
    <edge id=":AC0_6" function="internal">
        <lane id=":AC0_6_0" index="0" speed="8.00" length="8.26" shape="169.54,-0.00 170.54,0.60 172.19,3.35 172.74,7.20"/>
    </edge>