<additional><e1Detector id="Detector_-207223272#2_0" lane="-207223272#2_0" pos="120.92" freq="900" file="Detector-207223272#2_0.xml" /><e1Detector id="Detector_-207223272#2_1" lane="-207223272#2_1" pos="120.92" freq="900" file="Detector-207223272#2_1.xml" /><e1Detector id="Detector_-207223487#1_0" lane="-207223487#1_0" pos="721.09" freq="900" file="Detector-207223487#1_0.xml" /><e1Detector id="Detector_-219262778#5_0" lane="-219262778#5_0" pos="63.05" freq="900" file="Detector-219262778#5_0.xml" /><e1Detector id="Detector_-219262778#5_1" lane="-219262778#5_1" pos="63.05" freq="900" file="Detector-219262778#5_1.xml" /><e1Detector id="Detector_-220918245#1_0" lane="-220918245#1_0" pos="141.03" freq="900" file="Detector-220918245#1_0.xml" /><e1Detector id="Detector_-220918245#1_1" lane="-220918245#1_1" pos="141.03" freq="900" file="Detector-220918245#1_1.xml" /><e1Detector id="Detector_-220918245#1_2" lane="-220918245#1_2" pos="141.03" freq="900" file="Detector-220918245#1_2.xml" /><e1Detector id="Detector_-220918439#1_0" lane="-220918439#1_0" pos="142.99" freq="900" file="Detector-220918439#1_0.xml" /><e1Detector id="Detector_-220918439#1_1" lane="-220918439#1_1" pos="142.99" freq="900" file="Detector-220918439#1_1.xml" /><e1Detector id="Detector_-220955237#11_0" lane="-220955237#11_0" pos="548.81" freq="900" file="Detector-220955237#11_0.xml" /><e1Detector id="Detector_-220955237#11_1" lane="-220955237#11_1" pos="548.81" freq="900" file="Detector-220955237#11_1.xml" /><e1Detector id="Detector_-232846231#2_0" lane="-232846231#2_0" pos="944.24" freq="900" file="Detector-232846231#2_0.xml" /><e1Detector id="Detector_-232846231#2_1" lane="-232846231#2_1" pos="944.24" freq="900" file="Detector-232846231#2_1.xml" /><e1Detector id="Detector_-23473100#2_0" lane="-23473100#2_0" pos="38.99" freq="900" file="Detector-23473100#2_0.xml" /><e1Detector id="Detector_-23473100#2_1" lane="-23473100#2_1" pos="38.99" freq="900" file="Detector-23473100#2_1.xml" /><e1Detector id="Detector_-234733018#0_0" lane="-234733018#0_0" pos="133.88" freq="900" file="Detector-234733018#0_0.xml" /><e1Detector id="Detector_-23973402#5_0" lane="-23973402#5_0" pos="193.38" freq="900" file="Detector-23973402#5_0.xml" /><e1Detector id="Detector_-23973402#5_1" lane="-23973402#5_1" pos="193.38" freq="900" file="Detector-23973402#5_1.xml" /><e1Detector id="Detector_-248101310#6_0" lane="-248101310#6_0" pos="114.53" freq="900" file="Detector-248101310#6_0.xml" /><e1Detector id="Detector_-248101310#6_1" lane="-248101310#6_1" pos="114.53" freq="900" file="Detector-248101310#6_1.xml" /><e1Detector id="Detector_-248489460#3_0" lane="-248489460#3_0" pos="28.42" freq="900" file="Detector-248489460#3_0.xml" /><e1Detector id="Detector_-248489460#3_1" lane="-248489460#3_1" pos="28.42" freq="900" file="Detector-248489460#3_1.xml" /><e1Detector id="Detector_-277877819#2_0" lane="-277877819#2_0" pos="446.01" freq="900" file="Detector-277877819#2_0.xml" /><e1Detector id="Detector_-277877819#2_1" lane="-277877819#2_1" pos="446.01" freq="900" file="Detector-277877819#2_1.xml" /><e1Detector id="Detector_-285248539#1_0" lane="-285248539#1_0" pos="272.21" freq="900" file="Detector-285248539#1_0.xml" /><e1Detector id="Detector_-285248539#1_1" lane="-285248539#1_1" pos="272.21" freq="900" file="Detector-285248539#1_1.xml" /><e1Detector id="Detector_-293192364#3_0" lane="-293192364#3_0" pos="39.31" freq="900" file="Detector-293192364#3_0.xml" /><e1Detector id="Detector_-293192364#3_1" lane="-293192364#3_1" pos="39.31" freq="900" file="Detector-293192364#3_1.xml" /><e1Detector id="Detector_-293192367#6_0" lane="-293192367#6_0" pos="3.97" freq="900" file="Detector-293192367#6_0.xml" /><e1Detector id="Detector_-293192367#6_1" lane="-293192367#6_1" pos="3.97" freq="900" file="Detector-293192367#6_1.xml" /><e1Detector id="Detector_-296783426#5.50_0" lane="-296783426#5.50_0" pos="309.60" freq="900" file="Detector-296783426#5.50_0.xml" /><e1Detector id="Detector_-296783426#5.50_1" lane="-296783426#5.50_1" pos="309.60" freq="900" file="Detector-296783426#5.50_1.xml" /><e1Detector id="Detector_-296783427#7_0" lane="-296783427#7_0" pos="171.46" freq="900" file="Detector-296783427#7_0.xml" /><e1Detector id="Detector_-296783427#7_1" lane="-296783427#7_1" pos="171.46" freq="900" file="Detector-296783427#7_1.xml" /><e1Detector id="Detector_-30327576#2_0" lane="-30327576#2_0" pos="230.02" freq="900" file="Detector-30327576#2_0.xml" /><e1Detector id="Detector_-30327576#2_1" lane="-30327576#2_1" pos="230.02" freq="900" file="Detector-30327576#2_1.xml" /><e1Detector id="Detector_-33023072#3_0" lane="-33023072#3_0" pos="287.13" freq="900" file="Detector-33023072#3_0.xml" /><e1Detector id="Detector_-33023072#3_1" lane="-33023072#3_1" pos="287.13" freq="900" file="Detector-33023072#3_1.xml" /><e1Detector id="Detector_-33023075#4_0" lane="-33023075#4_0" pos="139.73" freq="900" file="Detector-33023075#4_0.xml" /><e1Detector id="Detector_-33023075#4_1" lane="-33023075#4_1" pos="139.73" freq="900" file="Detector-33023075#4_1.xml" /><e1Detector id="Detector_-33024553#3_0" lane="-33024553#3_0" pos="215.93" freq="900" file="Detector-33024553#3_0.xml" /><e1Detector id="Detector_-33024553#3_1" lane="-33024553#3_1" pos="215.93" freq="900" file="Detector-33024553#3_1.xml" /><e1Detector id="Detector_-33024556#1_0" lane="-33024556#1_0" pos="33.47" freq="900" file="Detector-33024556#1_0.xml" /><e1Detector id="Detector_-33024556#1_1" lane="-33024556#1_1" pos="33.47" freq="900" file="Detector-33024556#1_1.xml" /><e1Detector id="Detector_-33024564#4_0" lane="-33024564#4_0" pos="48.18" freq="900" file="Detector-33024564#4_0.xml" /><e1Detector id="Detector_-33024564#4_1" lane="-33024564#4_1" pos="48.18" freq="900" file="Detector-33024564#4_1.xml" /><e1Detector id="Detector_-33025448#3_0" lane="-33025448#3_0" pos="139.77" freq="900" file="Detector-33025448#3_0.xml" /><e1Detector id="Detector_-33025448#3_1" lane="-33025448#3_1" pos="139.77" freq="900" file="Detector-33025448#3_1.xml" /><e1Detector id="Detector_-33025456_0" lane="-33025456_0" pos="198.77" freq="900" file="Detector-33025456_0.xml" /><e1Detector id="Detector_-33025456_1" lane="-33025456_1" pos="198.77" freq="900" file="Detector-33025456_1.xml" /><e1Detector id="Detector_-33651797#1_0" lane="-33651797#1_0" pos="111.32" freq="900" file="Detector-33651797#1_0.xml" /><e1Detector id="Detector_-33651797#1_1" lane="-33651797#1_1" pos="111.32" freq="900" file="Detector-33651797#1_1.xml" /><e1Detector id="Detector_-339557020#1_0" lane="-339557020#1_0" pos="9.69" freq="900" file="Detector-339557020#1_0.xml" /><e1Detector id="Detector_-339557020#1_1" lane="-339557020#1_1" pos="9.69" freq="900" file="Detector-339557020#1_1.xml" /><e1Detector id="Detector_-34121615#3_0" lane="-34121615#3_0" pos="195.13" freq="900" file="Detector-34121615#3_0.xml" /><e1Detector id="Detector_-34121615#3_1" lane="-34121615#3_1" pos="195.13" freq="900" file="Detector-34121615#3_1.xml" /><e1Detector id="Detector_-34386967#2_0" lane="-34386967#2_0" pos="203.12" freq="900" file="Detector-34386967#2_0.xml" /><e1Detector id="Detector_-34386967#2_1" lane="-34386967#2_1" pos="203.12" freq="900" file="Detector-34386967#2_1.xml" /><e1Detector id="Detector_-34551383#1_0" lane="-34551383#1_0" pos="250.94" freq="900" file="Detector-34551383#1_0.xml" /><e1Detector id="Detector_-34551383#1_1" lane="-34551383#1_1" pos="250.94" freq="900" file="Detector-34551383#1_1.xml" /><e1Detector id="Detector_-34551385#2_0" lane="-34551385#2_0" pos="158.35" freq="900" file="Detector-34551385#2_0.xml" /><e1Detector id="Detector_-34551385#2_1" lane="-34551385#2_1" pos="158.35" freq="900" file="Detector-34551385#2_1.xml" /><e1Detector id="Detector_-34551387#1_0" lane="-34551387#1_0" pos="117.55" freq="900" file="Detector-34551387#1_0.xml" /><e1Detector id="Detector_-34551387#1_1" lane="-34551387#1_1" pos="117.55" freq="900" file="Detector-34551387#1_1.xml" /><e1Detector id="Detector_-35154257#1_0" lane="-35154257#1_0" pos="421.33" freq="900" file="Detector-35154257#1_0.xml" /><e1Detector id="Detector_-35154257#1_1" lane="-35154257#1_1" pos="421.33" freq="900" file="Detector-35154257#1_1.xml" /><e1Detector id="Detector_-35155499#3_0" lane="-35155499#3_0" pos="117.74" freq="900" file="Detector-35155499#3_0.xml" /><e1Detector id="Detector_-35155499#3_1" lane="-35155499#3_1" pos="117.74" freq="900" file="Detector-35155499#3_1.xml" /><e1Detector id="Detector_-354354332#2_0" lane="-354354332#2_0" pos="301.63" freq="900" file="Detector-354354332#2_0.xml" /><e1Detector id="Detector_-36355963#2_0" lane="-36355963#2_0" pos="56.21" freq="900" file="Detector-36355963#2_0.xml" /><e1Detector id="Detector_-3996325_0" lane="-3996325_0" pos="48.55" freq="900" file="Detector-3996325_0.xml" /><e1Detector id="Detector_-3996325_1" lane="-3996325_1" pos="48.55" freq="900" file="Detector-3996325_1.xml" /><e1Detector id="Detector_-3996337#1_0" lane="-3996337#1_0" pos="353.01" freq="900" file="Detector-3996337#1_0.xml" /><e1Detector id="Detector_-3996337#1_1" lane="-3996337#1_1" pos="353.01" freq="900" file="Detector-3996337#1_1.xml" /><e1Detector id="Detector_-407507550#2.18_0" lane="-407507550#2.18_0" pos="652.28" freq="900" file="Detector-407507550#2.18_0.xml" /><e1Detector id="Detector_-407507550#2.18_1" lane="-407507550#2.18_1" pos="652.28" freq="900" file="Detector-407507550#2.18_1.xml" /><e1Detector id="Detector_-4281669#2_0" lane="-4281669#2_0" pos="539.61" freq="900" file="Detector-4281669#2_0.xml" /><e1Detector id="Detector_-4281669#2_1" lane="-4281669#2_1" pos="539.61" freq="900" file="Detector-4281669#2_1.xml" /><e1Detector id="Detector_-4281719#2_0" lane="-4281719#2_0" pos="215.58" freq="900" file="Detector-4281719#2_0.xml" /><e1Detector id="Detector_-4321248#3_0" lane="-4321248#3_0" pos="87.35" freq="900" file="Detector-4321248#3_0.xml" /><e1Detector id="Detector_-4321248#3_1" lane="-4321248#3_1" pos="87.35" freq="900" file="Detector-4321248#3_1.xml" /><e1Detector id="Detector_-432298981#5_0" lane="-432298981#5_0" pos="57.80" freq="900" file="Detector-432298981#5_0.xml" /><e1Detector id="Detector_-432298981#5_1" lane="-432298981#5_1" pos="57.80" freq="900" file="Detector-432298981#5_1.xml" /><e1Detector id="Detector_-432298981#5_2" lane="-432298981#5_2" pos="57.80" freq="900" file="Detector-432298981#5_2.xml" /><e1Detector id="Detector_-444707654_0" lane="-444707654_0" pos="172.58" freq="900" file="Detector-444707654_0.xml" /><e1Detector id="Detector_-444707654_1" lane="-444707654_1" pos="172.58" freq="900" file="Detector-444707654_1.xml" /><e1Detector id="Detector_-445695122_0" lane="-445695122_0" pos="333.89" freq="900" file="Detector-445695122_0.xml" /><e1Detector id="Detector_-445695122_1" lane="-445695122_1" pos="333.89" freq="900" file="Detector-445695122_1.xml" /><e1Detector id="Detector_-446840767#1_0" lane="-446840767#1_0" pos="149.98" freq="900" file="Detector-446840767#1_0.xml" /><e1Detector id="Detector_-446840767#1_1" lane="-446840767#1_1" pos="149.98" freq="900" file="Detector-446840767#1_1.xml" /><e1Detector id="Detector_-446994466#4_0" lane="-446994466#4_0" pos="445.93" freq="900" file="Detector-446994466#4_0.xml" /><e1Detector id="Detector_-446994466#4_1" lane="-446994466#4_1" pos="445.93" freq="900" file="Detector-446994466#4_1.xml" /><e1Detector id="Detector_-446996497#1_0" lane="-446996497#1_0" pos="298.78" freq="900" file="Detector-446996497#1_0.xml" /><e1Detector id="Detector_-446996497#1_1" lane="-446996497#1_1" pos="298.78" freq="900" file="Detector-446996497#1_1.xml" /><e1Detector id="Detector_-45155111#3_0" lane="-45155111#3_0" pos="57.01" freq="900" file="Detector-45155111#3_0.xml" /><e1Detector id="Detector_-45155111#3_1" lane="-45155111#3_1" pos="57.01" freq="900" file="Detector-45155111#3_1.xml" /><e1Detector id="Detector_-45473333#5_0" lane="-45473333#5_0" pos="111.19" freq="900" file="Detector-45473333#5_0.xml" /><e1Detector id="Detector_-45473333#5_1" lane="-45473333#5_1" pos="111.19" freq="900" file="Detector-45473333#5_1.xml" /><e1Detector id="Detector_-456361612#2_0" lane="-456361612#2_0" pos="29.95" freq="900" file="Detector-456361612#2_0.xml" /><e1Detector id="Detector_-456361612#2_1" lane="-456361612#2_1" pos="29.95" freq="900" file="Detector-456361612#2_1.xml" /><e1Detector id="Detector_-458513996#3_0" lane="-458513996#3_0" pos="68.80" freq="900" file="Detector-458513996#3_0.xml" /><e1Detector id="Detector_-4652077#3_0" lane="-4652077#3_0" pos="204.02" freq="900" file="Detector-4652077#3_0.xml" /><e1Detector id="Detector_-4652077#3_1" lane="-4652077#3_1" pos="204.02" freq="900" file="Detector-4652077#3_1.xml" /><e1Detector id="Detector_-4847551#5_0" lane="-4847551#5_0" pos="209.86" freq="900" file="Detector-4847551#5_0.xml" /><e1Detector id="Detector_-4847551#5_1" lane="-4847551#5_1" pos="209.86" freq="900" file="Detector-4847551#5_1.xml" /><e1Detector id="Detector_-4847551#8_0" lane="-4847551#8_0" pos="45.15" freq="900" file="Detector-4847551#8_0.xml" /><e1Detector id="Detector_-4847551#8_1" lane="-4847551#8_1" pos="45.15" freq="900" file="Detector-4847551#8_1.xml" /><e1Detector id="Detector_-5090561#3_0" lane="-5090561#3_0" pos="191.39" freq="900" file="Detector-5090561#3_0.xml" /><e1Detector id="Detector_-5090561#3_1" lane="-5090561#3_1" pos="191.39" freq="900" file="Detector-5090561#3_1.xml" /><e1Detector id="Detector_-540084680#3_0" lane="-540084680#3_0" pos="280.72" freq="900" file="Detector-540084680#3_0.xml" /><e1Detector id="Detector_-540084680#3_1" lane="-540084680#3_1" pos="280.72" freq="900" file="Detector-540084680#3_1.xml" /><e1Detector id="Detector_-542398522#1_0" lane="-542398522#1_0" pos="769.80" freq="900" file="Detector-542398522#1_0.xml" /><e1Detector id="Detector_-542398522#1_1" lane="-542398522#1_1" pos="769.80" freq="900" file="Detector-542398522#1_1.xml" /><e1Detector id="Detector_-542549034#1_0" lane="-542549034#1_0" pos="11.87" freq="900" file="Detector-542549034#1_0.xml" /><e1Detector id="Detector_-542549034#1_1" lane="-542549034#1_1" pos="11.87" freq="900" file="Detector-542549034#1_1.xml" /><e1Detector id="Detector_-5686883#1_0" lane="-5686883#1_0" pos="120.84" freq="900" file="Detector-5686883#1_0.xml" /><e1Detector id="Detector_-5686883#1_1" lane="-5686883#1_1" pos="120.84" freq="900" file="Detector-5686883#1_1.xml" /><e1Detector id="Detector_-62058057#3_0" lane="-62058057#3_0" pos="49.56" freq="900" file="Detector-62058057#3_0.xml" /><e1Detector id="Detector_-62058057#3_1" lane="-62058057#3_1" pos="49.56" freq="900" file="Detector-62058057#3_1.xml" /><e1Detector id="Detector_-64370254#5_0" lane="-64370254#5_0" pos="702.78" freq="900" file="Detector-64370254#5_0.xml" /><e1Detector id="Detector_-64370254#5_1" lane="-64370254#5_1" pos="702.78" freq="900" file="Detector-64370254#5_1.xml" /><e1Detector id="Detector_-680230451#1_0" lane="-680230451#1_0" pos="144.20" freq="900" file="Detector-680230451#1_0.xml" /><e1Detector id="Detector_-680230451#1_1" lane="-680230451#1_1" pos="144.20" freq="900" file="Detector-680230451#1_1.xml" /><e1Detector id="Detector_-695753527#1_0" lane="-695753527#1_0" pos="557.63" freq="900" file="Detector-695753527#1_0.xml" /><e1Detector id="Detector_-695753527#1_1" lane="-695753527#1_1" pos="557.63" freq="900" file="Detector-695753527#1_1.xml" /><e1Detector id="Detector_-851809955#3_0" lane="-851809955#3_0" pos="59.56" freq="900" file="Detector-851809955#3_0.xml" /><e1Detector id="Detector_-851809955#3_1" lane="-851809955#3_1" pos="59.56" freq="900" file="Detector-851809955#3_1.xml" /><e1Detector id="Detector_-9423182#1_0" lane="-9423182#1_0" pos="213.56" freq="900" file="Detector-9423182#1_0.xml" /><e1Detector id="Detector_-9423182#1_1" lane="-9423182#1_1" pos="213.56" freq="900" file="Detector-9423182#1_1.xml" /><e1Detector id="Detector_-gneE18_0" lane="-gneE18_0" pos="479.80" freq="900" file="Detector-gneE18_0.xml" /><e1Detector id="Detector_-gneE18_1" lane="-gneE18_1" pos="479.80" freq="900" file="Detector-gneE18_1.xml" /><e1Detector id="Detector_124690744#0_0" lane="124690744#0_0" pos="301.75" freq="900" file="Detector124690744#0_0.xml" /><e1Detector id="Detector_19882355.48_0" lane="19882355.48_0" pos="493.61" freq="900" file="Detector19882355.48_0.xml" /><e1Detector id="Detector_19882355.48_1" lane="19882355.48_1" pos="493.61" freq="900" file="Detector19882355.48_1.xml" /><e1Detector id="Detector_19882355.48_2" lane="19882355.48_2" pos="493.61" freq="900" file="Detector19882355.48_2.xml" /><e1Detector id="Detector_204493904#0_0" lane="204493904#0_0" pos="124.61" freq="900" file="Detector204493904#0_0.xml" /><e1Detector id="Detector_207223272#13_0" lane="207223272#13_0" pos="279.01" freq="900" file="Detector207223272#13_0.xml" /><e1Detector id="Detector_207223272#13_1" lane="207223272#13_1" pos="279.01" freq="900" file="Detector207223272#13_1.xml" /><e1Detector id="Detector_207223487#0_0" lane="207223487#0_0" pos="720.88" freq="900" file="Detector207223487#0_0.xml" /><e1Detector id="Detector_214497643#15_0" lane="214497643#15_0" pos="293.64" freq="900" file="Detector214497643#15_0.xml" /><e1Detector id="Detector_214497643#15_1" lane="214497643#15_1" pos="293.64" freq="900" file="Detector214497643#15_1.xml" /><e1Detector id="Detector_214497643#15_2" lane="214497643#15_2" pos="293.64" freq="900" file="Detector214497643#15_2.xml" /><e1Detector id="Detector_21670319#4.57_0" lane="21670319#4.57_0" pos="224.63" freq="900" file="Detector21670319#4.57_0.xml" /><e1Detector id="Detector_21670319#4.57_1" lane="21670319#4.57_1" pos="224.63" freq="900" file="Detector21670319#4.57_1.xml" /><e1Detector id="Detector_21670319#4.57_2" lane="21670319#4.57_2" pos="224.63" freq="900" file="Detector21670319#4.57_2.xml" /><e1Detector id="Detector_21674222#0.6_0" lane="21674222#0.6_0" pos="143.75" freq="900" file="Detector21674222#0.6_0.xml" /><e1Detector id="Detector_21674222#0.6_1" lane="21674222#0.6_1" pos="143.75" freq="900" file="Detector21674222#0.6_1.xml" /><e1Detector id="Detector_21674222#0.6_2" lane="21674222#0.6_2" pos="143.75" freq="900" file="Detector21674222#0.6_2.xml" /><e1Detector id="Detector_219262778#8_0" lane="219262778#8_0" pos="74.92" freq="900" file="Detector219262778#8_0.xml" /><e1Detector id="Detector_219262778#8_1" lane="219262778#8_1" pos="74.92" freq="900" file="Detector219262778#8_1.xml" /><e1Detector id="Detector_219262779#0_0" lane="219262779#0_0" pos="149.99" freq="900" file="Detector219262779#0_0.xml" /><e1Detector id="Detector_219262779#0_1" lane="219262779#0_1" pos="149.99" freq="900" file="Detector219262779#0_1.xml" /><e1Detector id="Detector_220189044#0_0" lane="220189044#0_0" pos="27.60" freq="900" file="Detector220189044#0_0.xml" /><e1Detector id="Detector_220189044#0_1" lane="220189044#0_1" pos="27.60" freq="900" file="Detector220189044#0_1.xml" /><e1Detector id="Detector_220918438#0_0" lane="220918438#0_0" pos="87.59" freq="900" file="Detector220918438#0_0.xml" /><e1Detector id="Detector_220918438#0_1" lane="220918438#0_1" pos="87.59" freq="900" file="Detector220918438#0_1.xml" /><e1Detector id="Detector_220918702#0_0" lane="220918702#0_0" pos="242.26" freq="900" file="Detector220918702#0_0.xml" /><e1Detector id="Detector_220918702#0_1" lane="220918702#0_1" pos="242.26" freq="900" file="Detector220918702#0_1.xml" /><e1Detector id="Detector_220918702#0_2" lane="220918702#0_2" pos="242.26" freq="900" file="Detector220918702#0_2.xml" /><e1Detector id="Detector_220921560#0_0" lane="220921560#0_0" pos="141.30" freq="900" file="Detector220921560#0_0.xml" /><e1Detector id="Detector_220921560#0_1" lane="220921560#0_1" pos="141.30" freq="900" file="Detector220921560#0_1.xml" /><e1Detector id="Detector_220921560#0_2" lane="220921560#0_2" pos="141.30" freq="900" file="Detector220921560#0_2.xml" /><e1Detector id="Detector_220955237#10_0" lane="220955237#10_0" pos="548.82" freq="900" file="Detector220955237#10_0.xml" /><e1Detector id="Detector_220955237#10_1" lane="220955237#10_1" pos="548.82" freq="900" file="Detector220955237#10_1.xml" /><e1Detector id="Detector_222151618#5_0" lane="222151618#5_0" pos="358.99" freq="900" file="Detector222151618#5_0.xml" /><e1Detector id="Detector_222151618#5_1" lane="222151618#5_1" pos="358.99" freq="900" file="Detector222151618#5_1.xml" /><e1Detector id="Detector_22241344#0-AddedOffRampEdge_0" lane="22241344#0-AddedOffRampEdge_0" pos="692.88" freq="900" file="Detector22241344#0-AddedOffRampEdge_0.xml" /><e1Detector id="Detector_22241344#0-AddedOffRampEdge_1" lane="22241344#0-AddedOffRampEdge_1" pos="692.88" freq="900" file="Detector22241344#0-AddedOffRampEdge_1.xml" /><e1Detector id="Detector_22241344#0-AddedOffRampEdge_2" lane="22241344#0-AddedOffRampEdge_2" pos="692.88" freq="900" file="Detector22241344#0-AddedOffRampEdge_2.xml" /><e1Detector id="Detector_22241344#0-AddedOffRampEdge_3" lane="22241344#0-AddedOffRampEdge_3" pos="692.88" freq="900" file="Detector22241344#0-AddedOffRampEdge_3.xml" /><e1Detector id="Detector_223420013#0_0" lane="223420013#0_0" pos="114.70" freq="900" file="Detector223420013#0_0.xml" /><e1Detector id="Detector_223420013#0_1" lane="223420013#0_1" pos="114.70" freq="900" file="Detector223420013#0_1.xml" /><e1Detector id="Detector_223420013#0_2" lane="223420013#0_2" pos="114.70" freq="900" file="Detector223420013#0_2.xml" /><e1Detector id="Detector_224315808#0.28_0" lane="224315808#0.28_0" pos="432.18" freq="900" file="Detector224315808#0.28_0.xml" /><e1Detector id="Detector_224315808#0.28_1" lane="224315808#0.28_1" pos="432.18" freq="900" file="Detector224315808#0.28_1.xml" /><e1Detector id="Detector_22738843#0_0" lane="22738843#0_0" pos="550.59" freq="900" file="Detector22738843#0_0.xml" /><e1Detector id="Detector_22738843#0_1" lane="22738843#0_1" pos="550.59" freq="900" file="Detector22738843#0_1.xml" /><e1Detector id="Detector_228017232#0_0" lane="228017232#0_0" pos="106.27" freq="900" file="Detector228017232#0_0.xml" /><e1Detector id="Detector_228017232#0_1" lane="228017232#0_1" pos="106.27" freq="900" file="Detector228017232#0_1.xml" /><e1Detector id="Detector_232591811#0_0" lane="232591811#0_0" pos="224.32" freq="900" file="Detector232591811#0_0.xml" /><e1Detector id="Detector_232591811#0_1" lane="232591811#0_1" pos="224.32" freq="900" file="Detector232591811#0_1.xml" /><e1Detector id="Detector_232591811#0_2" lane="232591811#0_2" pos="224.32" freq="900" file="Detector232591811#0_2.xml" /><e1Detector id="Detector_232846231#0_0" lane="232846231#0_0" pos="944.34" freq="900" file="Detector232846231#0_0.xml" /><e1Detector id="Detector_232846231#0_1" lane="232846231#0_1" pos="944.34" freq="900" file="Detector232846231#0_1.xml" /><e1Detector id="Detector_233180844#0_0" lane="233180844#0_0" pos="292.62" freq="900" file="Detector233180844#0_0.xml" /><e1Detector id="Detector_233180844#0_1" lane="233180844#0_1" pos="292.62" freq="900" file="Detector233180844#0_1.xml" /><e1Detector id="Detector_233396010#0_0" lane="233396010#0_0" pos="152.68" freq="900" file="Detector233396010#0_0.xml" /><e1Detector id="Detector_233396010#0_1" lane="233396010#0_1" pos="152.68" freq="900" file="Detector233396010#0_1.xml" /><e1Detector id="Detector_23473100#0_0" lane="23473100#0_0" pos="39.56" freq="900" file="Detector23473100#0_0.xml" /><e1Detector id="Detector_23473100#0_1" lane="23473100#0_1" pos="39.56" freq="900" file="Detector23473100#0_1.xml" /><e1Detector id="Detector_24221130#0_0" lane="24221130#0_0" pos="235.60" freq="900" file="Detector24221130#0_0.xml" /><e1Detector id="Detector_24221130#0_1" lane="24221130#0_1" pos="235.60" freq="900" file="Detector24221130#0_1.xml" /><e1Detector id="Detector_24267451_0" lane="24267451_0" pos="3.04" freq="900" file="Detector24267451_0.xml" /><e1Detector id="Detector_24267451_1" lane="24267451_1" pos="3.04" freq="900" file="Detector24267451_1.xml" /><e1Detector id="Detector_24267451_2" lane="24267451_2" pos="3.04" freq="900" file="Detector24267451_2.xml" /><e1Detector id="Detector_24267451_3" lane="24267451_3" pos="3.04" freq="900" file="Detector24267451_3.xml" /><e1Detector id="Detector_248101310#7_0" lane="248101310#7_0" pos="110.57" freq="900" file="Detector248101310#7_0.xml" /><e1Detector id="Detector_248101310#7_1" lane="248101310#7_1" pos="110.57" freq="900" file="Detector248101310#7_1.xml" /><e1Detector id="Detector_263506114#5_0" lane="263506114#5_0" pos="181.40" freq="900" file="Detector263506114#5_0.xml" /><e1Detector id="Detector_263506114#5_1" lane="263506114#5_1" pos="181.40" freq="900" file="Detector263506114#5_1.xml" /><e1Detector id="Detector_28823582#0_0" lane="28823582#0_0" pos="393.27" freq="900" file="Detector28823582#0_0.xml" /><e1Detector id="Detector_28823582#0_1" lane="28823582#0_1" pos="393.27" freq="900" file="Detector28823582#0_1.xml" /><e1Detector id="Detector_293192088#0_0" lane="293192088#0_0" pos="164.45" freq="900" file="Detector293192088#0_0.xml" /><e1Detector id="Detector_293192088#0_1" lane="293192088#0_1" pos="164.45" freq="900" file="Detector293192088#0_1.xml" /><e1Detector id="Detector_293192364#0_0" lane="293192364#0_0" pos="39.35" freq="900" file="Detector293192364#0_0.xml" /><e1Detector id="Detector_293192364#0_1" lane="293192364#0_1" pos="39.35" freq="900" file="Detector293192364#0_1.xml" /><e1Detector id="Detector_293192367#0.41_0" lane="293192367#0.41_0" pos="3.73" freq="900" file="Detector293192367#0.41_0.xml" /><e1Detector id="Detector_293192367#0.41_1" lane="293192367#0.41_1" pos="3.73" freq="900" file="Detector293192367#0.41_1.xml" /><e1Detector id="Detector_30327576#0_0" lane="30327576#0_0" pos="230.05" freq="900" file="Detector30327576#0_0.xml" /><e1Detector id="Detector_30327576#0_1" lane="30327576#0_1" pos="230.05" freq="900" file="Detector30327576#0_1.xml" /><e1Detector id="Detector_30430773#0_0" lane="30430773#0_0" pos="133.83" freq="900" file="Detector30430773#0_0.xml" /><e1Detector id="Detector_30679706#0_0" lane="30679706#0_0" pos="91.04" freq="900" file="Detector30679706#0_0.xml" /><e1Detector id="Detector_30679706#0_1" lane="30679706#0_1" pos="91.04" freq="900" file="Detector30679706#0_1.xml" /><e1Detector id="Detector_30759215#2_0" lane="30759215#2_0" pos="118.88" freq="900" file="Detector30759215#2_0.xml" /><e1Detector id="Detector_30759215#2_1" lane="30759215#2_1" pos="118.88" freq="900" file="Detector30759215#2_1.xml" /><e1Detector id="Detector_30759232#0_0" lane="30759232#0_0" pos="392.53" freq="900" file="Detector30759232#0_0.xml" /><e1Detector id="Detector_30759232#0_1" lane="30759232#0_1" pos="392.53" freq="900" file="Detector30759232#0_1.xml" /><e1Detector id="Detector_30759232#0_2" lane="30759232#0_2" pos="392.53" freq="900" file="Detector30759232#0_2.xml" /><e1Detector id="Detector_30775348#0_0" lane="30775348#0_0" pos="141.43" freq="900" file="Detector30775348#0_0.xml" /><e1Detector id="Detector_30775348#0_1" lane="30775348#0_1" pos="141.43" freq="900" file="Detector30775348#0_1.xml" /><e1Detector id="Detector_30775359#0_0" lane="30775359#0_0" pos="60.36" freq="900" file="Detector30775359#0_0.xml" /><e1Detector id="Detector_30775359#0_1" lane="30775359#0_1" pos="60.36" freq="900" file="Detector30775359#0_1.xml" /><e1Detector id="Detector_30775359#0_2" lane="30775359#0_2" pos="60.36" freq="900" file="Detector30775359#0_2.xml" /><e1Detector id="Detector_30861344#0_0" lane="30861344#0_0" pos="145.24" freq="900" file="Detector30861344#0_0.xml" /><e1Detector id="Detector_30861344#0_1" lane="30861344#0_1" pos="145.24" freq="900" file="Detector30861344#0_1.xml" /><e1Detector id="Detector_30979310_0" lane="30979310_0" pos="172.34" freq="900" file="Detector30979310_0.xml" /><e1Detector id="Detector_30979310_1" lane="30979310_1" pos="172.34" freq="900" file="Detector30979310_1.xml" /><e1Detector id="Detector_30979438#0_0" lane="30979438#0_0" pos="13.24" freq="900" file="Detector30979438#0_0.xml" /><e1Detector id="Detector_30979438#0_1" lane="30979438#0_1" pos="13.24" freq="900" file="Detector30979438#0_1.xml" /><e1Detector id="Detector_30979603_0" lane="30979603_0" pos="153.91" freq="900" file="Detector30979603_0.xml" /><e1Detector id="Detector_30979603_1" lane="30979603_1" pos="153.91" freq="900" file="Detector30979603_1.xml" /><e1Detector id="Detector_314651045#0_0" lane="314651045#0_0" pos="429.19" freq="900" file="Detector314651045#0_0.xml" /><e1Detector id="Detector_314651045#0_1" lane="314651045#0_1" pos="429.19" freq="900" file="Detector314651045#0_1.xml" /><e1Detector id="Detector_314651045#0_2" lane="314651045#0_2" pos="429.19" freq="900" file="Detector314651045#0_2.xml" /><e1Detector id="Detector_33023072#0.23_0" lane="33023072#0.23_0" pos="286.54" freq="900" file="Detector33023072#0.23_0.xml" /><e1Detector id="Detector_33023072#0.23_1" lane="33023072#0.23_1" pos="286.54" freq="900" file="Detector33023072#0.23_1.xml" /><e1Detector id="Detector_33023075#0_0" lane="33023075#0_0" pos="138.67" freq="900" file="Detector33023075#0_0.xml" /><e1Detector id="Detector_33023075#0_1" lane="33023075#0_1" pos="138.67" freq="900" file="Detector33023075#0_1.xml" /><e1Detector id="Detector_33024562#0_0" lane="33024562#0_0" pos="363.87" freq="900" file="Detector33024562#0_0.xml" /><e1Detector id="Detector_33024562#0_1" lane="33024562#0_1" pos="363.87" freq="900" file="Detector33024562#0_1.xml" /><e1Detector id="Detector_33025451#0_0" lane="33025451#0_0" pos="11.45" freq="900" file="Detector33025451#0_0.xml" /><e1Detector id="Detector_33025451#0_1" lane="33025451#0_1" pos="11.45" freq="900" file="Detector33025451#0_1.xml" /><e1Detector id="Detector_33651795#0_0" lane="33651795#0_0" pos="59.89" freq="900" file="Detector33651795#0_0.xml" /><e1Detector id="Detector_33651795#0_1" lane="33651795#0_1" pos="59.89" freq="900" file="Detector33651795#0_1.xml" /><e1Detector id="Detector_33910433#0_0" lane="33910433#0_0" pos="530.54" freq="900" file="Detector33910433#0_0.xml" /><e1Detector id="Detector_34109832#0_0" lane="34109832#0_0" pos="229.09" freq="900" file="Detector34109832#0_0.xml" /><e1Detector id="Detector_34109832#0_1" lane="34109832#0_1" pos="229.09" freq="900" file="Detector34109832#0_1.xml" /><e1Detector id="Detector_34545779#0_0" lane="34545779#0_0" pos="66.14" freq="900" file="Detector34545