<additional><e1Detector id="Detector_-207223272#2_0" lane="-207223272#2_0" pos="73.16" freq="900" file="Detector-207223272#2_0.xml" /><e1Detector id="Detector_-207223272#2_1" lane="-207223272#2_1" pos="73.16" freq="900" file="Detector-207223272#2_1.xml" /><e1Detector id="Detector_-207223487#1_0" lane="-207223487#1_0" pos="751.28" freq="900" file="Detector-207223487#1_0.xml" /><e1Detector id="Detector_-219262778#5_0" lane="-219262778#5_0" pos="93.05" freq="900" file="Detector-219262778#5_0.xml" /><e1Detector id="Detector_-219262778#5_1" lane="-219262778#5_1" pos="93.05" freq="900" file="Detector-219262778#5_1.xml" /><e1Detector id="Detector_-220918245#1_0" lane="-220918245#1_0" pos="171.03" freq="900" file="Detector-220918245#1_0.xml" /><e1Detector id="Detector_-220918245#1_1" lane="-220918245#1_1" pos="171.03" freq="900" file="Detector-220918245#1_1.xml" /><e1Detector id="Detector_-220918245#1_2" lane="-220918245#1_2" pos="171.03" freq="900" file="Detector-220918245#1_2.xml" /><e1Detector id="Detector_-220918439#1_0" lane="-220918439#1_0" pos="172.99" freq="900" file="Detector-220918439#1_0.xml" /><e1Detector id="Detector_-220918439#1_1" lane="-220918439#1_1" pos="172.99" freq="900" file="Detector-220918439#1_1.xml" /><e1Detector id="Detector_-220955237#11_0" lane="-220955237#11_0" pos="578.15" freq="900" file="Detector-220955237#11_0.xml" /><e1Detector id="Detector_-220955237#11_1" lane="-220955237#11_1" pos="578.15" freq="900" file="Detector-220955237#11_1.xml" /><e1Detector id="Detector_-232846231#2_0" lane="-232846231#2_0" pos="974.24" freq="900" file="Detector-232846231#2_0.xml" /><e1Detector id="Detector_-232846231#2_1" lane="-232846231#2_1" pos="974.24" freq="900" file="Detector-232846231#2_1.xml" /><e1Detector id="Detector_-23473100#2_0" lane="-23473100#2_0" pos="68.38" freq="900" file="Detector-23473100#2_0.xml" /><e1Detector id="Detector_-23473100#2_1" lane="-23473100#2_1" pos="68.38" freq="900" file="Detector-23473100#2_1.xml" /><e1Detector id="Detector_-234733018#0_0" lane="-234733018#0_0" pos="163.88" freq="900" file="Detector-234733018#0_0.xml" /><e1Detector id="Detector_-23973402#5_0" lane="-23973402#5_0" pos="223.38" freq="900" file="Detector-23973402#5_0.xml" /><e1Detector id="Detector_-23973402#5_1" lane="-23973402#5_1" pos="223.38" freq="900" file="Detector-23973402#5_1.xml" /><e1Detector id="Detector_-248101310#6_0" lane="-248101310#6_0" pos="144.53" freq="900" file="Detector-248101310#6_0.xml" /><e1Detector id="Detector_-248101310#6_1" lane="-248101310#6_1" pos="144.53" freq="900" file="Detector-248101310#6_1.xml" /><e1Detector id="Detector_-248489460#3_0" lane="-248489460#3_0" pos="58.42" freq="900" file="Detector-248489460#3_0.xml" /><e1Detector id="Detector_-248489460#3_1" lane="-248489460#3_1" pos="58.42" freq="900" file="Detector-248489460#3_1.xml" /><e1Detector id="Detector_-277877819#2_0" lane="-277877819#2_0" pos="95.91" freq="900" file="Detector-277877819#2_0.xml" /><e1Detector id="Detector_-277877819#2_1" lane="-277877819#2_1" pos="95.91" freq="900" file="Detector-277877819#2_1.xml" /><e1Detector id="Detector_-285248539#1_0" lane="-285248539#1_0" pos="302.21" freq="900" file="Detector-285248539#1_0.xml" /><e1Detector id="Detector_-285248539#1_1" lane="-285248539#1_1" pos="302.21" freq="900" file="Detector-285248539#1_1.xml" /><e1Detector id="Detector_-293192364#3_0" lane="-293192364#3_0" pos="69.31" freq="900" file="Detector-293192364#3_0.xml" /><e1Detector id="Detector_-293192364#3_1" lane="-293192364#3_1" pos="69.31" freq="900" file="Detector-293192364#3_1.xml" /><e1Detector id="Detector_-293192367#6_0" lane="-293192367#6_0" pos="37.11" freq="900" file="Detector-293192367#6_0.xml" /><e1Detector id="Detector_-293192367#6_1" lane="-293192367#6_1" pos="37.11" freq="900" file="Detector-293192367#6_1.xml" /><e1Detector id="Detector_-296783426#5.50_0" lane="-296783426#5.50_0" pos="339.60" freq="900" file="Detector-296783426#5.50_0.xml" /><e1Detector id="Detector_-296783426#5.50_1" lane="-296783426#5.50_1" pos="339.60" freq="900" file="Detector-296783426#5.50_1.xml" /><e1Detector id="Detector_-296783427#7_0" lane="-296783427#7_0" pos="201.46" freq="900" file="Detector-296783427#7_0.xml" /><e1Detector id="Detector_-296783427#7_1" lane="-296783427#7_1" pos="201.46" freq="900" file="Detector-296783427#7_1.xml" /><e1Detector id="Detector_-302693476#1_0" lane="-302693476#1_0" pos="0.42" freq="900" file="Detector-302693476#1_0.xml" /><e1Detector id="Detector_-302693476#1_1" lane="-302693476#1_1" pos="0.42" freq="900" file="Detector-302693476#1_1.xml" /><e1Detector id="Detector_-30327576#2_0" lane="-30327576#2_0" pos="25.53" freq="900" file="Detector-30327576#2_0.xml" /><e1Detector id="Detector_-30327576#2_1" lane="-30327576#2_1" pos="25.53" freq="900" file="Detector-30327576#2_1.xml" /><e1Detector id="Detector_-33002812#2_0" lane="-33002812#2_0" pos="198.17" freq="900" file="Detector-33002812#2_0.xml" /><e1Detector id="Detector_-33002812#2_1" lane="-33002812#2_1" pos="198.17" freq="900" file="Detector-33002812#2_1.xml" /><e1Detector id="Detector_-33023075#4_0" lane="-33023075#4_0" pos="169.73" freq="900" file="Detector-33023075#4_0.xml" /><e1Detector id="Detector_-33023075#4_1" lane="-33023075#4_1" pos="169.73" freq="900" file="Detector-33023075#4_1.xml" /><e1Detector id="Detector_-33024553#3_0" lane="-33024553#3_0" pos="246.08" freq="900" file="Detector-33024553#3_0.xml" /><e1Detector id="Detector_-33024553#3_1" lane="-33024553#3_1" pos="246.08" freq="900" file="Detector-33024553#3_1.xml" /><e1Detector id="Detector_-33024556#1_0" lane="-33024556#1_0" pos="63.47" freq="900" file="Detector-33024556#1_0.xml" /><e1Detector id="Detector_-33024556#1_1" lane="-33024556#1_1" pos="63.47" freq="900" file="Detector-33024556#1_1.xml" /><e1Detector id="Detector_-33024564#4_0" lane="-33024564#4_0" pos="23.11" freq="900" file="Detector-33024564#4_0.xml" /><e1Detector id="Detector_-33024564#4_1" lane="-33024564#4_1" pos="23.11" freq="900" file="Detector-33024564#4_1.xml" /><e1Detector id="Detector_-33025448#3_0" lane="-33025448#3_0" pos="169.77" freq="900" file="Detector-33025448#3_0.xml" /><e1Detector id="Detector_-33025448#3_1" lane="-33025448#3_1" pos="169.77" freq="900" file="Detector-33025448#3_1.xml" /><e1Detector id="Detector_-33025456_0" lane="-33025456_0" pos="228.77" freq="900" file="Detector-33025456_0.xml" /><e1Detector id="Detector_-33025456_1" lane="-33025456_1" pos="228.77" freq="900" file="Detector-33025456_1.xml" /><e1Detector id="Detector_-33651797#1_0" lane="-33651797#1_0" pos="141.32" freq="900" file="Detector-33651797#1_0.xml" /><e1Detector id="Detector_-33651797#1_1" lane="-33651797#1_1" pos="141.32" freq="900" file="Detector-33651797#1_1.xml" /><e1Detector id="Detector_-339557020#1_0" lane="-339557020#1_0" pos="39.69" freq="900" file="Detector-339557020#1_0.xml" /><e1Detector id="Detector_-339557020#1_1" lane="-339557020#1_1" pos="39.69" freq="900" file="Detector-339557020#1_1.xml" /><e1Detector id="Detector_-34121615#3_0" lane="-34121615#3_0" pos="225.13" freq="900" file="Detector-34121615#3_0.xml" /><e1Detector id="Detector_-34121615#3_1" lane="-34121615#3_1" pos="225.13" freq="900" file="Detector-34121615#3_1.xml" /><e1Detector id="Detector_-34386967#2_0" lane="-34386967#2_0" pos="235.31" freq="900" file="Detector-34386967#2_0.xml" /><e1Detector id="Detector_-34386967#2_1" lane="-34386967#2_1" pos="235.31" freq="900" file="Detector-34386967#2_1.xml" /><e1Detector id="Detector_-34551383#1_0" lane="-34551383#1_0" pos="49.35" freq="900" file="Detector-34551383#1_0.xml" /><e1Detector id="Detector_-34551383#1_1" lane="-34551383#1_1" pos="49.35" freq="900" file="Detector-34551383#1_1.xml" /><e1Detector id="Detector_-34551387#1_0" lane="-34551387#1_0" pos="147.55" freq="900" file="Detector-34551387#1_0.xml" /><e1Detector id="Detector_-34551387#1_1" lane="-34551387#1_1" pos="147.55" freq="900" file="Detector-34551387#1_1.xml" /><e1Detector id="Detector_-35154257#1_0" lane="-35154257#1_0" pos="451.33" freq="900" file="Detector-35154257#1_0.xml" /><e1Detector id="Detector_-35154257#1_1" lane="-35154257#1_1" pos="451.33" freq="900" file="Detector-35154257#1_1.xml" /><e1Detector id="Detector_-35155499#3_0" lane="-35155499#3_0" pos="147.74" freq="900" file="Detector-35155499#3_0.xml" /><e1Detector id="Detector_-35155499#3_1" lane="-35155499#3_1" pos="147.74" freq="900" file="Detector-35155499#3_1.xml" /><e1Detector id="Detector_-354354332#2_0" lane="-354354332#2_0" pos="331.63" freq="900" file="Detector-354354332#2_0.xml" /><e1Detector id="Detector_-36355963#2_0" lane="-36355963#2_0" pos="86.21" freq="900" file="Detector-36355963#2_0.xml" /><e1Detector id="Detector_-3996325_0" lane="-3996325_0" pos="248.55" freq="900" file="Detector-3996325_0.xml" /><e1Detector id="Detector_-3996325_1" lane="-3996325_1" pos="248.55" freq="900" file="Detector-3996325_1.xml" /><e1Detector id="Detector_-3996337#1_0" lane="-3996337#1_0" pos="383.01" freq="900" file="Detector-3996337#1_0.xml" /><e1Detector id="Detector_-3996337#1_1" lane="-3996337#1_1" pos="383.01" freq="900" file="Detector-3996337#1_1.xml" /><e1Detector id="Detector_-4281669#2_0" lane="-4281669#2_0" pos="569.61" freq="900" file="Detector-4281669#2_0.xml" /><e1Detector id="Detector_-4281669#2_1" lane="-4281669#2_1" pos="569.61" freq="900" file="Detector-4281669#2_1.xml" /><e1Detector id="Detector_-4281719#2_0" lane="-4281719#2_0" pos="245.58" freq="900" file="Detector-4281719#2_0.xml" /><e1Detector id="Detector_-4321248#3_0" lane="-4321248#3_0" pos="63.27" freq="900" file="Detector-4321248#3_0.xml" /><e1Detector id="Detector_-4321248#3_1" lane="-4321248#3_1" pos="63.27" freq="900" file="Detector-4321248#3_1.xml" /><e1Detector id="Detector_-444707654_0" lane="-444707654_0" pos="25.13" freq="900" file="Detector-444707654_0.xml" /><e1Detector id="Detector_-444707654_1" lane="-444707654_1" pos="25.13" freq="900" file="Detector-444707654_1.xml" /><e1Detector id="Detector_-445695122_0" lane="-445695122_0" pos="363.89" freq="900" file="Detector-445695122_0.xml" /><e1Detector id="Detector_-445695122_1" lane="-445695122_1" pos="363.89" freq="900" file="Detector-445695122_1.xml" /><e1Detector id="Detector_-446840767#1_0" lane="-446840767#1_0" pos="71.05" freq="900" file="Detector-446840767#1_0.xml" /><e1Detector id="Detector_-446840767#1_1" lane="-446840767#1_1" pos="71.05" freq="900" file="Detector-446840767#1_1.xml" /><e1Detector id="Detector_-446994466#4_0" lane="-446994466#4_0" pos="371.23" freq="900" file="Detector-446994466#4_0.xml" /><e1Detector id="Detector_-446994466#4_1" lane="-446994466#4_1" pos="371.23" freq="900" file="Detector-446994466#4_1.xml" /><e1Detector id="Detector_-446996497#1_0" lane="-446996497#1_0" pos="328.78" freq="900" file="Detector-446996497#1_0.xml" /><e1Detector id="Detector_-446996497#1_1" lane="-446996497#1_1" pos="328.78" freq="900" file="Detector-446996497#1_1.xml" /><e1Detector id="Detector_-45155111#3_0" lane="-45155111#3_0" pos="87.01" freq="900" file="Detector-45155111#3_0.xml" /><e1Detector id="Detector_-45155111#3_1" lane="-45155111#3_1" pos="87.01" freq="900" file="Detector-45155111#3_1.xml" /><e1Detector id="Detector_-45473333#5_0" lane="-45473333#5_0" pos="141.19" freq="900" file="Detector-45473333#5_0.xml" /><e1Detector id="Detector_-45473333#5_1" lane="-45473333#5_1" pos="141.19" freq="900" file="Detector-45473333#5_1.xml" /><e1Detector id="Detector_-456341915#2_0" lane="-456341915#2_0" pos="29.08" freq="900" file="Detector-456341915#2_0.xml" /><e1Detector id="Detector_-456341915#2_1" lane="-456341915#2_1" pos="29.08" freq="900" file="Detector-456341915#2_1.xml" /><e1Detector id="Detector_-458513996#3_0" lane="-458513996#3_0" pos="92.96" freq="900" file="Detector-458513996#3_0.xml" /><e1Detector id="Detector_-4652077#3_0" lane="-4652077#3_0" pos="234.02" freq="900" file="Detector-4652077#3_0.xml" /><e1Detector id="Detector_-4652077#3_1" lane="-4652077#3_1" pos="234.02" freq="900" file="Detector-4652077#3_1.xml" /><e1Detector id="Detector_-4847551#5_0" lane="-4847551#5_0" pos="239.62" freq="900" file="Detector-4847551#5_0.xml" /><e1Detector id="Detector_-4847551#5_1" lane="-4847551#5_1" pos="239.62" freq="900" file="Detector-4847551#5_1.xml" /><e1Detector id="Detector_-4847551#8_0" lane="-4847551#8_0" pos="75.15" freq="900" file="Detector-4847551#8_0.xml" /><e1Detector id="Detector_-4847551#8_1" lane="-4847551#8_1" pos="75.15" freq="900" file="Detector-4847551#8_1.xml" /><e1Detector id="Detector_-5090561#3_0" lane="-5090561#3_0" pos="221.39" freq="900" file="Detector-5090561#3_0.xml" /><e1Detector id="Detector_-5090561#3_1" lane="-5090561#3_1" pos="221.39" freq="900" file="Detector-5090561#3_1.xml" /><e1Detector id="Detector_-540084680#3_0" lane="-540084680#3_0" pos="310.72" freq="900" file="Detector-540084680#3_0.xml" /><e1Detector id="Detector_-540084680#3_1" lane="-540084680#3_1" pos="310.72" freq="900" file="Detector-540084680#3_1.xml" /><e1Detector id="Detector_-542398522#1_0" lane="-542398522#1_0" pos="798.38" freq="900" file="Detector-542398522#1_0.xml" /><e1Detector id="Detector_-542398522#1_1" lane="-542398522#1_1" pos="798.38" freq="900" file="Detector-542398522#1_1.xml" /><e1Detector id="Detector_-542549034#1_0" lane="-542549034#1_0" pos="41.87" freq="900" file="Detector-542549034#1_0.xml" /><e1Detector id="Detector_-542549034#1_1" lane="-542549034#1_1" pos="41.87" freq="900" file="Detector-542549034#1_1.xml" /><e1Detector id="Detector_-5686883#1_0" lane="-5686883#1_0" pos="150.84" freq="900" file="Detector-5686883#1_0.xml" /><e1Detector id="Detector_-5686883#1_1" lane="-5686883#1_1" pos="150.84" freq="900" file="Detector-5686883#1_1.xml" /><e1Detector id="Detector_-62058057#3_0" lane="-62058057#3_0" pos="79.56" freq="900" file="Detector-62058057#3_0.xml" /><e1Detector id="Detector_-62058057#3_1" lane="-62058057#3_1" pos="79.56" freq="900" file="Detector-62058057#3_1.xml" /><e1Detector id="Detector_-64370254#5_0" lane="-64370254#5_0" pos="732.75" freq="900" file="Detector-64370254#5_0.xml" /><e1Detector id="Detector_-64370254#5_1" lane="-64370254#5_1" pos="732.75" freq="900" file="Detector-64370254#5_1.xml" /><e1Detector id="Detector_-680230451#1_0" lane="-680230451#1_0" pos="174.20" freq="900" file="Detector-680230451#1_0.xml" /><e1Detector id="Detector_-680230451#1_1" lane="-680230451#1_1" pos="174.20" freq="900" file="Detector-680230451#1_1.xml" /><e1Detector id="Detector_-684635748#1_0" lane="-684635748#1_0" pos="0" freq="900" file="Detector-684635748#1_0.xml" /><e1Detector id="Detector_-684635748#1_1" lane="-684635748#1_1" pos="0" freq="900" file="Detector-684635748#1_1.xml" /><e1Detector id="Detector_-695753527#1_0" lane="-695753527#1_0" pos="587.63" freq="900" file="Detector-695753527#1_0.xml" /><e1Detector id="Detector_-695753527#1_1" lane="-695753527#1_1" pos="587.63" freq="900" file="Detector-695753527#1_1.xml" /><e1Detector id="Detector_-76699167#1_0" lane="-76699167#1_0" pos="0" freq="900" file="Detector-76699167#1_0.xml" /><e1Detector id="Detector_-76699167#1_1" lane="-76699167#1_1" pos="0" freq="900" file="Detector-76699167#1_1.xml" /><e1Detector id="Detector_-76699167#1_2" lane="-76699167#1_2" pos="0" freq="900" file="Detector-76699167#1_2.xml" /><e1Detector id="Detector_-851809955#3_0" lane="-851809955#3_0" pos="41.28" freq="900" file="Detector-851809955#3_0.xml" /><e1Detector id="Detector_-851809955#3_1" lane="-851809955#3_1" pos="41.28" freq="900" file="Detector-851809955#3_1.xml" /><e1Detector id="Detector_-9423182#1_0" lane="-9423182#1_0" pos="243.56" freq="900" file="Detector-9423182#1_0.xml" /><e1Detector id="Detector_-9423182#1_1" lane="-9423182#1_1" pos="243.56" freq="900" file="Detector-9423182#1_1.xml" /><e1Detector id="Detector_-gneE18_0" lane="-gneE18_0" pos="509.80" freq="900" file="Detector-gneE18_0.xml" /><e1Detector id="Detector_-gneE18_1" lane="-gneE18_1" pos="509.80" freq="900" file="Detector-gneE18_1.xml" /><e1Detector id="Detector_124690744#0_0" lane="124690744#0_0" pos="331.75" freq="900" file="Detector124690744#0_0.xml" /><e1Detector id="Detector_19882355.48_0" lane="19882355.48_0" pos="613.61" freq="900" file="Detector19882355.48_0.xml" /><e1Detector id="Detector_19882355.48_1" lane="19882355.48_1" pos="613.61" freq="900" file="Detector19882355.48_1.xml" /><e1Detector id="Detector_19882355.48_2" lane="19882355.48_2" pos="613.61" freq="900" file="Detector19882355.48_2.xml" /><e1Detector id="Detector_204493904#0_0" lane="204493904#0_0" pos="154.61" freq="900" file="Detector204493904#0_0.xml" /><e1Detector id="Detector_207223272#13_0" lane="207223272#13_0" pos="28.83" freq="900" file="Detector207223272#13_0.xml" /><e1Detector id="Detector_207223272#13_1" lane="207223272#13_1" pos="28.83" freq="900" file="Detector207223272#13_1.xml" /><e1Detector id="Detector_207223487#0_0" lane="207223487#0_0" pos="751.07" freq="900" file="Detector207223487#0_0.xml" /><e1Detector id="Detector_214497643#15_0" lane="214497643#15_0" pos="325.67" freq="900" file="Detector214497643#15_0.xml" /><e1Detector id="Detector_214497643#15_1" lane="214497643#15_1" pos="325.67" freq="900" file="Detector214497643#15_1.xml" /><e1Detector id="Detector_214497643#15_2" lane="214497643#15_2" pos="325.67" freq="900" file="Detector214497643#15_2.xml" /><e1Detector id="Detector_21670319#4_0" lane="21670319#4_0" pos="255.42" freq="900" file="Detector21670319#4_0.xml" /><e1Detector id="Detector_21670319#4_1" lane="21670319#4_1" pos="255.42" freq="900" file="Detector21670319#4_1.xml" /><e1Detector id="Detector_21670319#4_2" lane="21670319#4_2" pos="255.42" freq="900" file="Detector21670319#4_2.xml" /><e1Detector id="Detector_21674222#0.6_0" lane="21674222#0.6_0" pos="173.75" freq="900" file="Detector21674222#0.6_0.xml" /><e1Detector id="Detector_21674222#0.6_1" lane="21674222#0.6_1" pos="173.75" freq="900" file="Detector21674222#0.6_1.xml" /><e1Detector id="Detector_21674222#0.6_2" lane="21674222#0.6_2" pos="173.75" freq="900" file="Detector21674222#0.6_2.xml" /><e1Detector id="Detector_219262778#8_0" lane="219262778#8_0" pos="104.92" freq="900" file="Detector219262778#8_0.xml" /><e1Detector id="Detector_219262778#8_1" lane="219262778#8_1" pos="104.92" freq="900" file="Detector219262778#8_1.xml" /><e1Detector id="Detector_219905383#0_0" lane="219905383#0_0" pos="39.57" freq="900" file="Detector219905383#0_0.xml" /><e1Detector id="Detector_219905383#0_1" lane="219905383#0_1" pos="39.57" freq="900" file="Detector219905383#0_1.xml" /><e1Detector id="Detector_219905383#0_2" lane="219905383#0_2" pos="39.57" freq="900" file="Detector219905383#0_2.xml" /><e1Detector id="Detector_219905383#0_3" lane="219905383#0_3" pos="39.57" freq="900" file="Detector219905383#0_3.xml" /><e1Detector id="Detector_220189044#0_0" lane="220189044#0_0" pos="57.60" freq="900" file="Detector220189044#0_0.xml" /><e1Detector id="Detector_220189044#0_1" lane="220189044#0_1" pos="57.60" freq="900" file="Detector220189044#0_1.xml" /><e1Detector id="Detector_220918438#0_0" lane="220918438#0_0" pos="117.59" freq="900" file="Detector220918438#0_0.xml" /><e1Detector id="Detector_220918438#0_1" lane="220918438#0_1" pos="117.59" freq="900" file="Detector220918438#0_1.xml" /><e1Detector id="Detector_220918702#0_0" lane="220918702#0_0" pos="272.26" freq="900" file="Detector220918702#0_0.xml" /><e1Detector id="Detector_220918702#0_1" lane="220918702#0_1" pos="272.26" freq="900" file="Detector220918702#0_1.xml" /><e1Detector id="Detector_220918702#0_2" lane="220918702#0_2" pos="272.26" freq="900" file="Detector220918702#0_2.xml" /><e1Detector id="Detector_220955237#10_0" lane="220955237#10_0" pos="578.17" freq="900" file="Detector220955237#10_0.xml" /><e1Detector id="Detector_220955237#10_1" lane="220955237#10_1" pos="578.17" freq="900" file="Detector220955237#10_1.xml" /><e1Detector id="Detector_222151618#5_0" lane="222151618#5_0" pos="388.98" freq="900" file="Detector222151618#5_0.xml" /><e1Detector id="Detector_222151618#5_1" lane="222151618#5_1" pos="388.98" freq="900" file="Detector222151618#5_1.xml" /><e1Detector id="Detector_22241344#0-AddedOffRampEdge_0" lane="22241344#0-AddedOffRampEdge_0" pos="716.63" freq="900" file="Detector22241344#0-AddedOffRampEdge_0.xml" /><e1Detector id="Detector_22241344#0-AddedOffRampEdge_1" lane="22241344#0-AddedOffRampEdge_1" pos="716.63" freq="900" file="Detector22241344#0-AddedOffRampEdge_1.xml" /><e1Detector id="Detector_22241344#0-AddedOffRampEdge_2" lane="22241344#0-AddedOffRampEdge_2" pos="716.63" freq="900" file="Detector22241344#0-AddedOffRampEdge_2.xml" /><e1Detector id="Detector_22241344#0-AddedOffRampEdge_3" lane="22241344#0-AddedOffRampEdge_3" pos="716.63" freq="900" file="Detector22241344#0-AddedOffRampEdge_3.xml" /><e1Detector id="Detector_223420013#0_0" lane="223420013#0_0" pos="144.70" freq="900" file="Detector223420013#0_0.xml" /><e1Detector id="Detector_223420013#0_1" lane="223420013#0_1" pos="144.70" freq="900" file="Detector223420013#0_1.xml" /><e1Detector id="Detector_223420013#0_2" lane="223420013#0_2" pos="144.70" freq="900" file="Detector223420013#0_2.xml" /><e1Detector id="Detector_224315808#0.28_0" lane="224315808#0.28_0" pos="208.43" freq="900" file="Detector224315808#0.28_0.xml" /><e1Detector id="Detector_224315808#0.28_1" lane="224315808#0.28_1" pos="208.43" freq="900" file="Detector224315808#0.28_1.xml" /><e1Detector id="Detector_228017232#0_0" lane="228017232#0_0" pos="136.27" freq="900" file="Detector228017232#0_0.xml" /><e1Detector id="Detector_228017232#0_1" lane="228017232#0_1" pos="136.27" freq="900" file="Detector228017232#0_1.xml" /><e1Detector id="Detector_232591811#0_0" lane="232591811#0_0" pos="268.96" freq="900" file="Detector232591811#0_0.xml" /><e1Detector id="Detector_232591811#0_1" lane="232591811#0_1" pos="268.96" freq="900" file="Detector232591811#0_1.xml" /><e1Detector id="Detector_232591811#0_2" lane="232591811#0_2" pos="268.96" freq="900" file="Detector232591811#0_2.xml" /><e1Detector id="Detector_232591811#0_3" lane="232591811#0_3" pos="268.96" freq="900" file="Detector232591811#0_3.xml" /><e1Detector id="Detector_232846231#0_0" lane="232846231#0_0" pos="974.34" freq="900" file="Detector232846231#0_0.xml" /><e1Detector id="Detector_232846231#0_1" lane="232846231#0_1" pos="974.34" freq="900" file="Detector232846231#0_1.xml" /><e1Detector id="Detector_233180844#0_0" lane="233180844#0_0" pos="313.92" freq="900" file="Detector233180844#0_0.xml" /><e1Detector id="Detector_233180844#0_1" lane="233180844#0_1" pos="313.92" freq="900" file="Detector233180844#0_1.xml" /><e1Detector id="Detector_233396010#0_0" lane="233396010#0_0" pos="182.68" freq="900" file="Detector233396010#0_0.xml" /><e1Detector id="Detector_233396010#0_1" lane="233396010#0_1" pos="182.68" freq="900" file="Detector233396010#0_1.xml" /><e1Detector id="Detector_23473100#0_0" lane="23473100#0_0" pos="68.94" freq="900" file="Detector23473100#0_0.xml" /><e1Detector id="Detector_23473100#0_1" lane="23473100#0_1" pos="68.94" freq="900" file="Detector23473100#0_1.xml" /><e1Detector id="Detector_24221130#0_0" lane="24221130#0_0" pos="265.60" freq="900" file="Detector24221130#0_0.xml" /><e1Detector id="Detector_24221130#0_1" lane="24221130#0_1" pos="265.60" freq="900" file="Detector24221130#0_1.xml" /><e1Detector id="Detector_24221148#0_0" lane="24221148#0_0" pos="51.76" freq="900" file="Detector24221148#0_0.xml" /><e1Detector id="Detector_24221148#0_1" lane="24221148#0_1" pos="51.76" freq="900" file="Detector24221148#0_1.xml" /><e1Detector id="Detector_24267451_0" lane="24267451_0" pos="33.04" freq="900" file="Detector24267451_0.xml" /><e1Detector id="Detector_24267451_1" lane="24267451_1" pos="33.04" freq="900" file="Detector24267451_1.xml" /><e1Detector id="Detector_24267451_2" lane="24267451_2" pos="33.04" freq="900" file="Detector24267451_2.xml" /><e1Detector id="Detector_24267451_3" lane="24267451_3" pos="33.04" freq="900" file="Detector24267451_3.xml" /><e1Detector id="Detector_248101310#7_0" lane="248101310#7_0" pos="140.57" freq="900" file="Detector248101310#7_0.xml" /><e1Detector id="Detector_248101310#7_1" lane="248101310#7_1" pos="140.57" freq="900" file="Detector248101310#7_1.xml" /><e1Detector id="Detector_25757055#0_0" lane="25757055#0_0" pos="137.01" freq="900" file="Detector25757055#0_0.xml" /><e1Detector id="Detector_25757055#0_1" lane="25757055#0_1" pos="137.01" freq="900" file="Detector25757055#0_1.xml" /><e1Detector id="Detector_263506114#5_0" lane="263506114#5_0" pos="195.77" freq="900" file="Detector263506114#5_0.xml" /><e1Detector id="Detector_263506114#5_1" lane="263506114#5_1" pos="195.77" freq="900" file="Detector263506114#5_1.xml" /><e1Detector id="Detector_286809511#0_0" lane="286809511#0_0" pos="453.49" freq="900" file="Detector286809511#0_0.xml" /><e1Detector id="Detector_286809511#0_1" lane="286809511#0_1" pos="453.49" freq="900" file="Detector286809511#0_1.xml" /><e1Detector id="Detector_286809511#0_2" lane="286809511#0_2" pos="453.49" freq="900" file="Detector286809511#0_2.xml" /><e1Detector id="Detector_28823582#0_0" lane="28823582#0_0" pos="423.27" freq="900" file="Detector28823582#0_0.xml" /><e1Detector id="Detector_28823582#0_1" lane="28823582#0_1" pos="423.27" freq="900" file="Detector28823582#0_1.xml" /><e1Detector id="Detector_293192088#0_0" lane="293192088#0_0" pos="194.45" freq="900" file="Detector293192088#0_0.xml" /><e1Detector id="Detector_293192088#0_1" lane="293192088#0_1" pos="194.45" freq="900" file="Detector293192088#0_1.xml" /><e1Detector id="Detector_293192364#0_0" lane="293192364#0_0" pos="69.35" freq="900" file="Detector293192364#0_0.xml" /><e1Detector id="Detector_293192364#0_1" lane="293192364#0_1" pos="69.35" freq="900" file="Detector293192364#0_1.xml" /><e1Detector id="Detector_293192367#0_0" lane="293192367#0_0" pos="37.00" freq="900" file="Detector293192367#0_0.xml" /><e1Detector id="Detector_293192367#0_1" lane="293192367#0_1" pos="37.00" freq="900" file="Detector293192367#0_1.xml" /><e1Detector id="Detector_302152532#0_0" lane="302152532#0_0" pos="20.47" freq="900" file="Detector302152532#0_0.xml" /><e1Detector id="Detector_302152532#0_1" lane="302152532#0_1" pos="20.47" freq="900" file="Detector302152532#0_1.xml" /><e1Detector id="Detector_302152532#0_2" lane="302152532#0_2" pos="20.47" freq="900" file="Detector302152532#0_2.xml" /><e1Detector id="Detector_302152532#0_3" lane="302152532#0_3" pos="20.47" freq="900" file="Detector302152532#0_3.xml" /><e1Detector id="Detector_30327576#6_0" lane="30327576#6_0" pos="0" freq="900" file="Detector30327576#6_0.xml" /><e1Detector id="Detector_30327576#6_1" lane="30327576#6_1" pos="0" freq="900" file="Detector30327576#6_1.xml" /><e1Detector id="Detector_30430773#0_0" lane="30430773#0_0" pos="163.83" freq="900" file="Detector30430773#0_0.xml" /><e1Detector id="Detector_30679706#0_0" lane="30679706#0_0" pos="121.04" freq="900" file="Detector30679706#0_0.xml" /><e1Detector id="Detector_30679706#0_1" lane="30679706#0_1" pos="121.04" freq="900" file="Detector30679706#0_1.xml" /><e1Detector id="Detector_30759215#2_0" lane="30759215#2_0" pos="148.88" freq="900" file="Detector30759215#2_0.xml" /><e1Detector id="Detector_30759215#2_1" lane="30759215#2_1" pos="148.88" freq="900" file="Detector30759215#2_1.xml" /><e1Detector id="Detector_30759232#0_0" lane="30759232#0_0" pos="422.53" freq="900" file="Detector30759232#0_0.xml" /><e1Detector id="Detector_30759232#0_1" lane="30759232#0_1" pos="422.53" freq="900" file="Detector30759232#0_1.xml" /><e1Detector id="Detector_30759232#0_2" lane="30759232#0_2" pos="422.53" freq="900" file="Detector30759232#0_2.xml" /><e1Detector id="Detector_30775348#0_0" lane="30775348#0_0" pos="170.33" freq="900" file="Detector30775348#0_0.xml" /><e1Detector id="Detector_30775348#0_1" lane="30775348#0_1" pos="170.33" freq="900" file="Detector30775348#0_1.xml" /><e1Detector id="Detector_30775359#0_0" lane="30775359#0_0" pos="88.59" freq="900" file="Detector30775359#0_0.xml" /><e1Detector id="Detector_30775359#0_1" lane="30775359#0_1" pos="88.59" freq="900" file="Detector30775359#0_1.xml" /><e1Detector id="Detector_30775359#0_2" lane="30775359#0_2" pos="88.59" freq="900" file="Detector30775359#0_2.xml" /><e1Detector id="Detector_30861344#0_0" lane="30861344#0_0" pos="175.24" freq="900" file="Detector30861344#0_0.xml" /><e1Detector id="Detector_30861344#0_1" lane="30861344#0_1" pos="175.24" freq="900" file="Detector30861344#0_1.xml" /><e1Detector id="Detector_30979438#0_0" lane="30979438#0_0" pos="43.24" freq="900" file="Detector30979438#0_0.xml" /><e1Detector id="Detector_30979438#0_1" lane="30979438#0_1" pos="43.24" freq="900" file="Detector30979438#0_1.xml" /><e1Detector id="Detector_30979603_0" lane="30979603_0" pos="40.81" freq="900" file="Detector30979603_0.xml" /><e1Detector id="Detector_30979603_1" lane="30979603_1" pos="40.81" freq="900" file="Detector30979603_1.xml" /><e1Detector id="Detector_314651045#0_0" lane="314651045#0_0" pos="459.19" freq="900" file="Detector314651045#0_0.xml" /><e1Detector id="Detector_314651045#0_1" lane="314651045#0_1" pos="459.19" freq="900" file="Detector314651045#0_1.xml" /><e1Detector id="Detector_314651045#0_2" lane="314651045#0_2" pos="459.19" freq="900" file="Detector314651045#0_2.xml" /><e1Detector id="Detector_33023072#0_0" lane="33023072#0_0" pos="16.05" freq="900" file="Detector33023072#0_0.xml" /><e1Detector id="Detector_33023072#0_1" lane="33023072#0_1" pos="16.05" freq="900" file="Detector33023072#0_1.xml" /><e1Detector id="Detector_33023075#0_0" lane="33023075#0_0" pos="168.67" freq="900" file="Detector33023075#0_0.xml" /><e1Detector id="Detector_33023075#0_1" lane="33023075#0_1" pos="168.67" freq="900" file="Detector33023075#0_1.xml" /><e1Detector id="Detector_33024562#0_0" lane="33024562#0_0" pos="393.87" freq="900" file="Detector33024562#0_0.xml" /><e1Detector id="Detector_33024562#0_1" lane="33024562#0_1" pos="393.87" freq="900" file="Detector33024562#0_1.xml" /><e1Detector id="Detector_33025451#0_0" lane="33025451#0_0" pos="41.45" freq="900" file="Detector33025451#0_0.xml" /><e1Detector id="Detector_33025451#0_1" lane="33025451#0_1" pos="41.45" freq="9