<?xml version="1.0" encoding="UTF-8"?>

<!-- generated on 2021-07-20 22:01:45 by Eclipse SUMO netedit Version 1.9.2
<configuration xmlns:xsi="http://www.w3.org/2001/XMLSchema-instance" xsi:noNamespaceSchemaLocation="http://sumo.dlr.de/xsd/netconvertConfiguration.xsd">

    <input>
        <sumo-net-file value="/home/fazel/Adaptive_Routing_W_Q_Learning_main/environments/sumo/networks/toronto/toronto.backup.net.xml"/>
    </input>

    <output>
        <output-file value="/home/fazel/Adaptive_Routing_W_Q_Learning_main/environments/sumo/networks/toronto/toronto.backup.net.xml"/>
        <output.street-names value="true"/>
    </output>

    <processing>
        <geometry.min-radius.fix.railways value="false"/>
        <geometry.max-grade.fix value="false"/>
        <offset.disable-normalization value="true"/>
        <lefthand value="false"/>
    </processing>

    <junctions>
        <no-turnarounds value="true"/>
        <junctions.corner-detail value="5"/>
        <junctions.limit-turn-speed value="5.5"/>
        <rectangular-lane-cut value="false"/>
    </junctions>

    <pedestrian>
        <walkingareas value="false"/>
    </pedestrian>

    <report>
        <aggregate-warnings value="5"/>
    </report>

</configuration>
-->

<net version="1.9" junctionCornerDetail="5" limitTurnSpeed="5.50" xmlns:xsi="http://www.w3.org/2001/XMLSchema-instance" xsi:noNamespaceSchemaLocation="http://sumo.dlr.de/xsd/net_file.xsd">

    <location netOffset="0.00,0.00" convBoundary="2364.85,1168.98,7743.44,6247.67" origBoundary="-10000000000.00,-10000000000.00,10000000000.00,10000000000.00" projParameter="!"/>

    <type id="highway.bridleway" priority="1" numLanes="1" speed="2.78" allow="pedestrian" oneway="1" width="2.00"/>
    <type id="highway.bus_guideway" priority="1" numLanes="1" speed="27.78" allow="bus" oneway="1"/>
    <type id="highway.cycleway" priority="1" numLanes="1" speed="8.33" allow="bicycle" oneway="1" width="1.00"/>
    <type id="highway.footway" priority="1" numLanes="1" speed="2.78" allow="pedestrian" oneway="1" width="2.00"/>
    <type id="highway.ford" priority="1" numLanes="1" speed="2.78" allow="army" oneway="1"/>
    <type id="highway.living_street" priority="2" numLanes="1" speed="2.78" disallow="tram rail_urban rail rail_electric rail_fast ship" oneway="1"/>
    <type id="highway.motorway" priority="14" numLanes="2" speed="39.44" allow="private emergency authority army vip passenger hov taxi bus coach delivery truck trailer motorcycle evehicle custom1 custom2" oneway="1"/>
    <type id="highway.motorway_link" priority="9" numLanes="1" speed="22.22" allow="private emergency authority army vip passenger hov taxi bus coach delivery truck trailer motorcycle evehicle custom1 custom2" oneway="1"/>
    <type id="highway.path" priority="1" numLanes="1" speed="2.78" allow="pedestrian bicycle" oneway="1" width="2.00"/>
    <type id="highway.pedestrian" priority="1" numLanes="1" speed="2.78" allow="pedestrian" oneway="1" width="2.00"/>
    <type id="highway.primary" priority="12" numLanes="2" speed="27.78" disallow="tram rail_urban rail rail_electric rail_fast ship" oneway="1"/>
    <type id="highway.primary_link" priority="7" numLanes="1" speed="22.22" disallow="tram rail_urban rail rail_electric rail_fast ship" oneway="1"/>
    <type id="highway.raceway" priority="15" numLanes="2" speed="83.33" allow="vip" oneway="1"/>
    <type id="highway.residential" priority="3" numLanes="1" speed="13.89" disallow="tram rail_urban rail rail_electric rail_fast ship" oneway="1"/>
    <type id="highway.secondary" priority="11" numLanes="1" speed="27.78" disallow="tram rail_urban rail rail_electric rail_fast ship" oneway="1"/>
    <type id="highway.secondary_link" priority="6" numLanes="1" speed="22.22" disallow="tram rail_urban rail rail_electric rail_fast ship" oneway="1"/>
    <type id="highway.service" priority="1" numLanes="1" speed="5.56" allow="pedestrian delivery bicycle" oneway="1"/>
    <type id="highway.stairs" priority="1" numLanes="1" speed="1.39" allow="pedestrian" oneway="1" width="2.00"/>
    <type id="highway.step" priority="1" numLanes="1" speed="1.39" allow="pedestrian" oneway="1" width="2.00"/>
    <type id="highway.steps" priority="1" numLanes="1" speed="1.39" allow="pedestrian" oneway="1" width="2.00"/>
    <type id="highway.tertiary" priority="10" numLanes="1" speed="22.22" disallow="tram rail_urban rail rail_electric rail_fast ship" oneway="1"/>
    <type id="highway.tertiary_link" priority="5" numLanes="1" speed="22.22" disallow="tram rail_urban rail rail_electric rail_fast ship" oneway="1"/>
    <type id="highway.track" priority="1" numLanes="1" speed="5.56" allow="pedestrian motorcycle moped bicycle" oneway="1"/>
    <type id="highway.trunk" priority="13" numLanes="2" speed="27.78" disallow="pedestrian bicycle tram rail_urban rail rail_electric rail_fast ship" oneway="1"/>
    <type id="highway.trunk_link" priority="8" numLanes="1" speed="22.22" disallow="pedestrian bicycle tram rail_urban rail rail_electric rail_fast ship" oneway="1"/>
    <type id="highway.unclassified" priority="4" numLanes="1" speed="13.89" disallow="tram rail_urban rail rail_electric rail_fast ship" oneway="1"/>
    <type id="highway.unsurfaced" priority="1" numLanes="1" speed="8.33" disallow="tram rail_urban rail rail_electric rail_fast ship" oneway="1"/>
    <type id="railway.highspeed" priority="21" numLanes="1" speed="69.44" allow="rail_fast" oneway="1"/>
    <type id="railway.light_rail" priority="19" numLanes="1" speed="27.78" allow="rail_urban" oneway="1"/>
    <type id="railway.preserved" priority="16" numLanes="1" speed="27.78" allow="rail" oneway="1"/>
    <type id="railway.rail" priority="20" numLanes="1" speed="44.44" allow="rail" oneway="1"/>
    <type id="railway.subway" priority="18" numLanes="1" speed="27.78" allow="rail_urban" oneway="1"/>
    <type id="railway.tram" priority="17" numLanes="1" speed="13.89" allow="tram" oneway="1"/>

    <edge id=":1102845227_0" function="internal">
        <lane id=":1102845227_0_0" index="0" disallow="tram rail_urban rail rail_electric rail_fast ship" speed="11.11" length="0.33" shape="6002.73,3620.60 6002.63,3620.93"/>
        <lane id=":1102845227_0_1" index="1" disallow="tram rail_urban rail rail_electric rail_fast ship" speed="11.11" length="0.33" shape="5999.67,3619.66 5999.58,3619.96"/>
    </edge>
    <edge id=":1102845227_2" function="internal">
        <lane id=":1102845227_2_0" index="0" disallow="tram rail_urban rail rail_electric rail_fast ship" speed="11.11" length="0.26" shape="5993.48,3618.01 5993.56,3617.78"/>
        <lane id=":1102845227_2_1" index="1" disallow="tram rail_urban rail rail_electric rail_fast ship" speed="11.11" length="0.26" shape="5996.53,3618.99 5996.61,3618.72"/>
    </edge>
    <edge id=":1335223553_0" function="internal">
        <lane id=":1335223553_0_0" index="0" allow="private emergency authority army vip passenger hov taxi bus coach delivery truck trailer motorcycle evehicle custom1 custom2" speed="25.00" length="8.15" shape="6459.37,5079.74 6458.54,5082.05 6458.71,5083.90 6458.91,5085.76 6458.14,5088.11"/>
        <lane id=":1335223553_0_1" index="1" allow="private emergency authority army vip passenger hov taxi bus coach delivery truck trailer motorcycle evehicle custom1 custom2" speed="25.00" length="8.15" shape="6459.37,5079.74 6455.36,5086.53"/>
        <lane id=":1335223553_0_2" index="2" allow="private emergency authority army vip passenger hov taxi bus coach delivery truck trailer motorcycle evehicle custom1 custom2" speed="25.00" length="8.15" shape="6456.63,5078.07 6452.58,5084.95"/>
        <lane id=":1335223553_0_3" index="3" allow="private emergency authority army vip passenger hov taxi bus coach delivery truck trailer motorcycle evehicle custom1 custom2" speed="25.00" length="8.15" shape="6453.90,5076.41 6449.80,5083.36"/>
    </edge>
    <edge id=":1363831225_0" function="internal">
        <lane id=":1363831225_0_0" index="0" allow="private emergency authority army vip passenger hov taxi bus coach delivery truck trailer motorcycle evehicle custom1 custom2" speed="6.65" length="6.63" shape="5257.92,1884.06 5256.21,1884.36 5254.81,1885.08 5253.72,1886.21 5252.93,1887.76"/>
        <lane id=":1363831225_0_1" index="1" allow="private emergency authority army vip passenger hov taxi bus coach delivery truck trailer motorcycle evehicle custom1 custom2" speed="7.55" length="8.75" shape="5257.92,1884.06 5254.73,1884.36 5252.33,1884.89 5250.72,1885.67 5249.92,1886.69"/>
    </edge>
    <edge id=":1403960984_0" function="internal">
        <lane id=":1403960984_0_0" index="0" disallow="tram rail_urban rail rail_electric rail_fast ship" speed="11.11" length="1.62" shape="3060.51,3984.41 3062.13,3984.58"/>
        <lane id=":1403960984_0_1" index="1" disallow="tram rail_urban rail rail_electric rail_fast ship" speed="11.11" length="1.62" shape="3063.57,3985.35 3065.19,3985.53"/>
        <lane id=":1403960984_0_2" index="2" disallow="tram rail_urban rail rail_electric rail_fast ship" speed="11.11" length="1.62" shape="3066.63,3986.29 3068.24,3986.48"/>
    </edge>
    <edge id=":1414163638_0" function="internal">
        <lane id=":1414163638_0_0" index="0" disallow="tram rail_urban rail rail_electric rail_fast ship" speed="11.11" length="8.00" shape="4639.69,2996.04 4637.34,3003.69"/>
        <lane id=":1414163638_0_1" index="1" disallow="tram rail_urban rail rail_electric rail_fast ship" speed="11.11" length="8.00" shape="4636.63,2995.10 4634.29,3002.75"/>
    </edge>
    <edge id=":1414163638_2" function="internal">
        <lane id=":1414163638_2_0" index="0" disallow="tram rail_urban rail rail_electric rail_fast ship" speed="11.11" length="8.80" shape="4625.11,2999.94 4626.31,2997.73 4627.81,2996.58 4629.31,2995.44 4630.51,2993.23"/>
        <lane id=":1414163638_2_1" index="1" disallow="tram rail_urban rail rail_electric rail_fast ship" speed="11.11" length="8.80" shape="4628.17,3000.87 4629.37,2998.67 4630.87,2997.52 4632.37,2996.37 4633.57,2994.17"/>
    </edge>
    <edge id=":1431131579_0" function="internal">
        <lane id=":1431131579_0_0" index="0" disallow="tram rail_urban rail rail_electric rail_fast ship" speed="27.78" length="0.23" shape="3412.98,1495.55 3412.79,1495.48"/>
        <lane id=":1431131579_0_1" index="1" disallow="tram rail_urban rail rail_electric rail_fast ship" speed="27.78" length="0.23" shape="3414.14,1492.56 3413.89,1492.47"/>
    </edge>
    <edge id=":1431131579_2" function="internal">
        <lane id=":1431131579_2_0" index="0" disallow="tram rail_urban rail rail_electric rail_fast ship" speed="27.78" length="0.34" shape="3416.10,1486.46 3416.44,1486.59"/>
        <lane id=":1431131579_2_1" index="1" disallow="tram rail_urban rail rail_electric rail_fast ship" speed="27.78" length="0.34" shape="3415.00,1489.47 3415.29,1489.58"/>
    </edge>
    <edge id=":1470543871_0" function="internal">
        <lane id=":1470543871_0_0" index="0" disallow="tram rail_urban rail rail_electric rail_fast ship" speed="13.89" length="8.21" shape="6327.65,2983.42 6329.57,2984.86 6331.12,2985.54 6332.67,2986.22 6334.62,2987.64"/>
        <lane id=":1470543871_0_1" index="1" disallow="tram rail_urban rail rail_electric rail_fast ship" speed="13.89" length="8.21" shape="6325.47,2985.76 6327.40,2987.22 6328.96,2987.90 6330.52,2988.58 6332.47,2990.01"/>
    </edge>
    <edge id=":1550992510_0" function="internal">
        <lane id=":1550992510_0_0" index="0" disallow="tram rail_urban rail rail_electric rail_fast ship" speed="11.11" length="0.30" shape="4019.24,2446.83 4018.95,2446.74"/>
        <lane id=":1550992510_0_1" index="1" disallow="tram rail_urban rail rail_electric rail_fast ship" speed="11.11" length="0.30" shape="4020.18,2443.77 4019.90,2443.69"/>
    </edge>
    <edge id=":1550992510_2" function="internal">
        <lane id=":1550992510_2_0" index="0" disallow="tram rail_urban rail rail_electric rail_fast ship" speed="11.11" length="0.30" shape="4021.78,2437.57 4022.07,2437.66"/>
        <lane id=":1550992510_2_1" index="1" disallow="tram rail_urban rail rail_electric rail_fast ship" speed="11.11" length="0.30" shape="4020.84,2440.63 4021.13,2440.72"/>
    </edge>
    <edge id=":1551002988_0" function="internal">
        <lane id=":1551002988_0_0" index="0" disallow="tram rail_urban rail rail_electric rail_fast ship" speed="11.11" length="0.30" shape="4699.34,2802.00 4699.25,2802.29"/>
        <lane id=":1551002988_0_1" index="1" disallow="tram rail_urban rail rail_electric rail_fast ship" speed="11.11" length="0.30" shape="4696.28,2801.05 4696.19,2801.34"/>
    </edge>
    <edge id=":1551002988_2" function="internal">
        <lane id=":1551002988_2_0" index="0" disallow="tram rail_urban rail rail_electric rail_fast ship" speed="11.11" length="0.30" shape="4690.08,2799.43 4690.17,2799.15"/>
        <lane id=":1551002988_2_1" index="1" disallow="tram rail_urban rail rail_electric rail_fast ship" speed="11.11" length="0.30" shape="4693.14,2800.39 4693.23,2800.10"/>
    </edge>
    <edge id=":1553140355_0" function="internal">
        <lane id=":1553140355_0_0" index="0" disallow="tram rail_urban rail rail_electric rail_fast ship" speed="19.45" length="0.30" shape="4480.97,3493.95 4480.88,3494.23"/>
        <lane id=":1553140355_0_1" index="1" disallow="tram rail_urban rail rail_electric rail_fast ship" speed="19.45" length="0.30" shape="4477.94,3492.94 4477.84,3493.23"/>
    </edge>
    <edge id=":1553140355_2" function="internal">
        <lane id=":1553140355_2_0" index="0" disallow="tram rail_urban rail rail_electric rail_fast ship" speed="19.45" length="0.30" shape="4471.77,3491.21 4471.86,3490.93"/>
        <lane id=":1553140355_2_1" index="1" disallow="tram rail_urban rail rail_electric rail_fast ship" speed="19.45" length="0.30" shape="4474.80,3492.22 4474.90,3491.93"/>
    </edge>
    <edge id=":1553144380_0" function="internal">
        <lane id=":1553144380_0_0" index="0" allow="private emergency authority army vip passenger hov taxi bus coach delivery truck trailer motorcycle evehicle custom1 custom2" speed="25.00" length="8.21" shape="4949.11,1597.96 4950.89,1599.59 4951.84,1600.98 4952.80,1602.38 4954.58,1604.00"/>
        <lane id=":1553144380_0_1" index="1" allow="private emergency authority army vip passenger hov taxi bus coach delivery truck trailer motorcycle evehicle custom1 custom2" speed="25.00" length="8.21" shape="4947.21,1600.53 4948.98,1602.16 4949.94,1603.56 4950.91,1604.95 4952.69,1606.57"/>
        <lane id=":1553144380_0_2" index="2" allow="private emergency authority army vip passenger hov taxi bus coach delivery truck trailer motorcycle evehicle custom1 custom2" speed="25.00" length="8.21" shape="4945.30,1603.10 4947.08,1604.73 4948.04,1606.13 4949.01,1607.53 4950.79,1609.15"/>
    </edge>
    <edge id=":1595922860_0" function="internal">
        <lane id=":1595922860_0_0" index="0" disallow="tram rail_urban rail rail_electric rail_fast ship" speed="11.11" length="0.30" shape="5924.55,2757.74 5924.86,2757.84"/>
        <lane id=":1595922860_0_1" index="1" disallow="tram rail_urban rail rail_electric rail_fast ship" speed="11.11" length="0.30" shape="5923.60,2760.80 5923.88,2760.89"/>
        <lane id=":1595922860_0_2" index="2" disallow="tram rail_urban rail rail_electric rail_fast ship" speed="11.11" length="0.30" shape="5922.65,2763.85 5922.91,2763.93"/>
    </edge>
    <edge id=":1625424073_0" function="internal">
        <lane id=":1625424073_0_0" index="0" disallow="tram rail_urban rail rail_electric rail_fast ship" speed="27.78" length="0.30" shape="3514.02,1534.99 3513.74,1534.88"/>
        <lane id=":1625424073_0_1" index="1" disallow="tram rail_urban rail rail_electric rail_fast ship" speed="27.78" length="0.30" shape="3515.20,1532.01 3514.92,1531.90"/>
    </edge>
    <edge id=":1625424073_2" function="internal">
        <lane id=":1625424073_2_0" index="0" disallow="tram rail_urban rail rail_electric rail_fast ship" speed="27.78" length="0.30" shape="3517.28,1525.95 3517.56,1526.06"/>
        <lane id=":1625424073_2_1" index="1" disallow="tram rail_urban rail rail_electric rail_fast ship" speed="27.78" length="0.30" shape="3516.10,1528.93 3516.38,1529.04"/>
    </edge>
    <edge id=":1640116231_0" function="internal">
        <lane id=":1640116231_0_0" index="0" disallow="tram rail_urban rail rail_electric rail_fast ship" speed="27.78" length="8.54" shape="6050.90,2595.80 6048.41,2595.49 6046.60,2596.04 6044.79,2596.60 6042.29,2596.28"/>
        <lane id=":1640116231_0_1" index="1" disallow="tram rail_urban rail rail_electric rail_fast ship" speed="27.78" length="8.54" shape="6051.92,2592.77 6049.43,2592.46 6047.62,2593.01 6045.81,2593.56 6043.32,2593.25"/>
        <lane id=":1640116231_0_2" index="2" disallow="tram rail_urban rail rail_electric rail_fast ship" speed="27.78" length="8.54" shape="6051.92,2592.77 6044.34,2590.22"/>
    </edge>
    <edge id=":1640116231_3" function="internal">
        <lane id=":1640116231_3_0" index="0" disallow="tram rail_urban rail rail_electric rail_fast ship" speed="27.78" length="7.99" shape="6046.38,2584.15 6053.96,2586.70"/>
        <lane id=":1640116231_3_1" index="1" disallow="tram rail_urban rail rail_electric rail_fast ship" speed="27.78" length="7.99" shape="6045.36,2587.19 6052.94,2589.73"/>
    </edge>
    <edge id=":1744460216_0" function="internal">
        <lane id=":1744460216_0_0" index="0" disallow="tram rail_urban rail rail_electric rail_fast ship" speed="27.78" length="8.04" shape="6250.22,2662.51 6242.56,2660.01"/>
        <lane id=":1744460216_0_1" index="1" disallow="tram rail_urban rail rail_electric rail_fast ship" speed="27.78" length="8.04" shape="6251.20,2659.46 6243.57,2656.97"/>
    </edge>
    <edge id=":1744460216_2" function="internal">
        <lane id=":1744460216_2_0" index="0" disallow="tram rail_urban rail rail_electric rail_fast ship" speed="27.78" length="8.50" shape="6245.60,2650.90 6248.07,2651.20 6249.86,2650.63 6251.65,2650.05 6254.13,2650.32"/>
        <lane id=":1744460216_2_1" index="1" disallow="tram rail_urban rail rail_electric rail_fast ship" speed="27.78" length="8.50" shape="6244.59,2653.94 6247.07,2654.24 6248.86,2653.67 6250.66,2653.10 6253.15,2653.37"/>
        <lane id=":1744460216_2_2" index="2" disallow="tram rail_urban rail rail_electric rail_fast ship" speed="27.78" length="8.50" shape="6244.59,2653.94 6252.17,2656.42"/>
    </edge>
    <edge id=":184514742_0" function="internal">
        <lane id=":184514742_0_0" index="0" allow="private emergency authority army vip passenger hov taxi bus coach delivery truck trailer motorcycle evehicle custom1 custom2" speed="25.00" length="7.98" shape="6818.49,4226.96 6816.62,4234.76"/>
        <lane id=":184514742_0_1" index="1" allow="private emergency authority army vip passenger hov taxi bus coach delivery truck trailer motorcycle evehicle custom1 custom2" speed="25.00" length="7.98" shape="6815.38,4226.23 6813.51,4233.99"/>
        <lane id=":184514742_0_2" index="2" allow="private emergency authority army vip passenger hov taxi bus coach delivery truck trailer motorcycle evehicle custom1 custom2" speed="25.00" length="7.98" shape="6812.26,4225.51 6810.40,4233.22"/>
    </edge>
    <edge id=":1889248857_0" function="internal">
        <lane id=":1889248857_0_0" index="0" disallow="tram rail_urban rail rail_electric rail_fast ship" speed="11.11" length="0.35" shape="4723.36,2724.41 4723.24,2724.80"/>
        <lane id=":1889248857_0_1" index="1" disallow="tram rail_urban rail rail_electric rail_fast ship" speed="11.11" length="0.35" shape="4720.28,2723.54 4720.20,2723.82"/>
    </edge>
    <edge id=":1889248857_2" function="internal">
        <lane id=":1889248857_2_0" index="0" disallow="tram rail_urban rail rail_electric rail_fast ship" speed="11.11" length="0.14" shape="4714.10,2721.87 4714.13,2721.79"/>
        <lane id=":1889248857_2_1" index="1" disallow="tram rail_urban rail rail_electric rail_fast ship" speed="11.11" length="0.14" shape="4717.15,2722.85 4717.20,2722.67"/>
    </edge>
    <edge id=":1894129943_0" function="internal">
        <lane id=":1894129943_0_0" index="0" disallow="tram rail_urban rail rail_electric rail_fast ship" speed="11.11" length="8.83" shape="4676.93,2887.36 4675.73,2889.57 4674.23,2890.73 4672.72,2891.88 4671.50,2894.09"/>
        <lane id=":1894129943_0_1" index="1" disallow="tram rail_urban rail rail_electric rail_fast ship" speed="11.11" length="8.83" shape="4673.87,2886.42 4672.67,2888.63 4671.17,2889.78 4669.66,2890.93 4668.45,2893.14"/>
    </edge>
    <edge id=":1894129943_2" function="internal">
        <lane id=":1894129943_2_0" index="0" disallow="tram rail_urban rail rail_electric rail_fast ship" speed="11.11" length="8.78" shape="4659.28,2890.28 4660.49,2888.09 4662.00,2886.95 4663.49,2885.81 4664.69,2883.62"/>
        <lane id=":1894129943_2_1" index="1" disallow="tram rail_urban rail rail_electric rail_fast ship" speed="11.11" length="8.78" shape="4662.34,2891.23 4663.55,2889.04 4665.05,2887.90 4666.55,2886.75 4667.75,2884.55"/>
    </edge>
    <edge id=":19881833-AddedOffRampNode_0" function="internal">
        <lane id=":19881833-AddedOffRampNode_0_0" index="0" allow="private emergency authority army vip passenger hov taxi bus coach delivery truck trailer motorcycle evehicle custom1 custom2" speed="22.01" length="1.39" shape="4247.77,1297.74 4247.08,1297.76 4246.61,1297.74 4246.15,1297.66 4245.48,1297.49"/>
        <lane id=":19881833-AddedOffRampNode_0_1" index="1" allow="private emergency authority army vip passenger hov taxi bus coach delivery truck trailer motorcycle evehicle custom1 custom2" speed="17.10" length="1.39" shape="4247.66,1294.55 4247.25,1294.56 4246.96,1294.54 4246.68,1294.49 4246.29,1294.39"/>
        <lane id=":19881833-AddedOffRampNode_0_2" index="2" allow="private emergency authority army vip passenger hov taxi bus coach delivery truck trailer motorcycle evehicle custom1 custom2" speed="25.00" length="1.39" shape="4247.55,1291.35 4247.41,1291.35 4247.32,1291.35 4247.22,1291.33 4247.09,1291.30"/>
    </edge>
    <edge id=":2056766505_0" function="internal">
        <lane id=":2056766505_0_0" index="0" allow="private emergency authority army vip passenger hov taxi bus coach delivery truck trailer motorcycle evehicle custom1 custom2" speed="25.00" length="8.12" shape="6269.16,6048.82 6269.92,6051.14 6271.19,6052.48 6272.48,6053.81 6273.33,6056.12"/>
        <lane id=":2056766505_0_1" index="1" allow="private emergency authority army vip passenger hov taxi bus coach delivery truck trailer motorcycle evehicle custom1 custom2" speed="25.00" length="8.12" shape="6269.16,6048.82 6270.16,6056.59"/>
        <lane id=":2056766505_0_2" index="2" allow="private emergency authority army vip passenger hov taxi bus coach delivery truck trailer motorcycle evehicle custom1 custom2" speed="25.00" length="8.12" shape="6265.98,6049.17 6267.00,6057.06"/>
        <lane id=":2056766505_0_3" index="3" allow="private emergency authority army vip passenger hov taxi bus coach delivery truck trailer motorcycle evehicle custom1 custom2" speed="25.00" length="8.12" shape="6262.80,6049.52 6263.83,6057.53"/>
    </edge>
    <edge id=":2056766536_0" function="internal">
        <lane id=":2056766536_0_0" index="0" allow="private emergency authority army vip passenger hov taxi bus coach delivery truck trailer motorcycle evehicle custom1 custom2" speed="23.61" length="9.80" shape="6241.58,5951.71 6241.56,5949.44 6241.58,5947.88 6241.69,5946.33 6241.90,5944.07"/>
        <lane id=":2056766536_0_1" index="1" allow="private emergency authority army vip passenger hov taxi bus coach delivery truck trailer motorcycle evehicle custom1 custom2" speed="23.61" length="9.80" shape="6241.58,5951.71 6242.05,5949.42 6243.17,5948.04 6244.36,5946.67 6245.09,5944.39"/>
        <lane id=":2056766536_0_2" index="2" allow="private emergency authority army vip passenger hov taxi bus coach delivery truck trailer motorcycle evehicle custom1 custom2" speed="23.61" length="9.80" shape="6241.58,5951.71 6242.54,5949.25 6244.73,5948.20 6247.01,5947.16 6248.27,5944.71"/>
        <lane id=":2056766536_0_3" index="3" allow="private emergency authority army vip passenger hov taxi bus coach delivery truck trailer motorcycle evehicle custom1 custom2" speed="23.61" length="9.80" shape="6241.58,5951.71 6243.02,5949.39 6246.28,5948.72 6249.65,5947.87 6251.46,5945.03"/>
    </edge>
    <edge id=":2057182524_0" function="internal">
        <lane id=":2057182524_0_0" index="0" disallow="pedestrian bicycle tram rail_urban rail rail_electric rail_fast ship" speed="16.67" length="8.03" shape="5886.07,5757.62 5879.74,5752.61"/>
        <lane id=":2057182524_0_1" index="1" disallow="pedestrian bicycle tram rail_urban rail rail_electric rail_fast ship" speed="16.67" length="8.03" shape="5888.02,5755.08 5881.77,5750.13"/>
    </edge>
    <edge id=":2057182524_2" function="internal">
        <lane id=":2057182524_2_0" index="0" disallow="pedestrian bicycle tram rail_urban rail rail_electric rail_fast ship" speed="16.67" length="8.27" shape="5883.79,5747.65 5885.97,5748.78 5887.83,5748.86 5889.69,5748.92 5891.92,5750.00"/>
        <lane id=":2057182524_2_1" index="1" disallow="pedestrian bicycle tram rail_urban rail rail_electric rail_fast ship" speed="16.67" length="8.27" shape="5883.79,5747.65 5889.97,5752.54"/>
    </edge>
    <edge id=":2057182534_0" function="internal">
        <lane id=":2057182534_0_0" index="0" disallow="pedestrian bicycle tram rail_urban rail rail_electric rail_fast ship" speed="22.23" length="0.10" shape="5782.61,5661.64 5782.49,5661.53"/>
        <lane id=":2057182534_0_1" index="1" disallow="pedestrian bicycle tram rail_urban rail rail_electric rail_fast ship" speed="22.23" length="0.10" shape="5784.75,5659.26 5784.71,5659.22"/>
    </edge>
    <edge id=":2057182534_2" function="internal">
        <lane id=":2057182534_2_0" index="0" disallow="pedestrian bicycle tram rail_urban rail rail_electric rail_fast ship" speed="22.23" length="0.10" shape="5786.93,5656.92 5786.89,5656.88"/>
    </edge>
    <edge id=":2057182564_0" function="internal">
        <lane id=":2057182564_0_0" index="0" disallow="tram rail_urban rail rail_electric rail_fast ship" speed="15.28" length="7.22" shape="5822.42,5658.85 5820.64,5659.94 5819.02,5660.16 5817.52,5660.48 5816.13,5661.88"/>
    </edge>
    <edge id=":2057182564_1" function="internal">
        <lane id=":2057182564_1_0" index="0" disallow="pedestrian bicycle tram rail_urban rail rail_electric rail_fast ship" speed="19.45" length="8.87" shape="5812.56,5659.66 5813.68,5657.12 5812.98,5654.69 5812.29,5652.28 5813.43,5649.75"/>
        <lane id=":2057182564_1_1" index="1" disallow="pedestrian bicycle tram rail_urban rail rail_electric rail_fast ship" speed="19.45" length="8.87" shape="5812.56,5659.66 5813.86,5657.64 5814.11,5655.83 5814.36,5654.03 5815.68,5652.02"/>
        <lane id=":2057182564_1_2" index="2" disallow="pedestrian bicycle tram rail_urban rail rail_electric rail_fast ship" speed="19.45" length="8.87" shape="5812.56,5659.66 5817.92,5654.30"/>
    </edge>
    <edge id=":2057182573_0" function="internal">
        <lane id=":2057182573_0_0" index="0" disallow="tram rail_urban rail rail_electric rail_fast ship" speed="15.28" length="0.10" shape="5738.37,5603.44 5738.33,5603.36"/>
    </edge>
    <edge id=":2057182573_1" function="internal">
        <lane id=":2057182573_1_0" index="0" disallow="tram rail_urban rail rail_electric rail_fast ship" speed="15.28" length="0.10" shape="5741.29,5602.14 5741.25,5602.06"/>
    </edge>
    <edge id=":2057182576_0" function="internal">
        <lane id=":2057182576_0_0" index="0" disallow="pedestrian bicycle tram rail_urban rail rail_electric rail_fast ship" speed="16.67" length="0.90" shape="5859.72,5736.28 5859.46,5736.07 5859.29,5735.92 5859.13,5735.76 5858.91,5735.52"/>
        <lane id=":2057182576_0_1" index="1" disallow="pedestrian bicycle tram rail_urban rail rail_electric rail_fast ship" speed="16.67" length="0.90" shape="5861.74,5733.80 5861.59,5733.68 5861.49,5733.58 5861.39,5733.49 5861.25,5733.34"/>
    </edge>
    <edge id=":2057182576_2" function="internal">
        <lane id=":2057182576_2_0" index="0" disallow="pedestrian bicycle tram rail_urban rail rail_electric rail_fast ship" speed="16.67" length="0.22" shape="5863.60,5731.17 5863.65,5731.22 5863.68,5731.25 5863.71,5731.28 5863.76,5731.32"/>
    </edge>
    <edge id=":2057182598_0" function="internal">
        <lane id=":2057182598_0_0" index="0" disallow="tram rail_urban rail rail_electric rail_fast ship" speed="10.16" length="7.42" shape="5867.10,5246.86 5865.60,5245.64 5864.34,5245.14 5862.91,5244.98 5860.91,5244.79"/>
        <lane id=":2057182598_0_1" index="1" disallow="tram rail_urban rail rail_electric rail_fast ship" speed="11.09" length="7.42" shape="5867.10,5246.86 5865.57,5244.97 5864.63,5243.42 5863.48,5242.28 5861.34,5241.62"/>
    </edge>
    <edge id=":2057182598_2" function="internal">
        <lane id=":2057182598_2_0" index="0" disallow="tram rail_urban rail rail_electric rail_fast ship" speed="13.89" length="8.71" shape="5863.72,5238.02 5864.99,5240.25 5866.11,5241.61 5867.43,5242.82 5869.34,5244.58"/>
    </edge>
    <edge id=":2057182690_0" function="internal">
        <lane id=":2057182690_0_0" index="0" disallow="pedestrian bicycle tram rail_urban rail rail_electric rail_fast ship" speed="16.67" length="9.42" shape="5806.86,5683.55 5799.90,5677.22"/>
        <lane id=":2057182690_0_1" index="1" disallow="pedestrian bicycle tram rail_urban rail rail_electric rail_fast ship" speed="16.67" length="9.42" shape="5809.02,5681.20 5802.06,5674.85"/>
    </edge>
    <edge id=":2057182690_2" function="internal">
        <lane id=":2057182690_2_0" index="0" disallow="pedestrian bicycle tram rail_urban rail rail_electric rail_fast ship" speed="6.56" length="7.76" shape="5810.17,5671.84 5809.35,5673.74 5809.25,5675.55 5809.86,5677.24 5811.19,5678.84"/>