<?xml version="1.0" encoding="UTF-8"?>

<!-- generated on 2021-08-02 02:28:59 by Eclipse SUMO netedit Version 1.9.2
<configuration xmlns:xsi="http://www.w3.org/2001/XMLSchema-instance" xsi:noNamespaceSchemaLocation="http://sumo.dlr.de/xsd/netconvertConfiguration.xsd">

    <input>
        <sumo-net-file value="/home/fazel/Adaptive_Routing_W_Q_Learning_main/environments/sumo/networks/toronto/toronto.net.xml"/>
    </input>

    <output>
        <output-file value="/home/fazel/Adaptive_Routing_W_Q_Learning_main/environments/sumo/networks/toronto/toronto_original.net.xml"/>
        <output.street-names value="true"/>
    </output>

    <processing>
        <geometry.min-radius.fix.railways value="false"/>
        <geometry.max-grade.fix value="false"/>
        <offset.disable-normalization value="true"/>
        <lefthand value="false"/>
    </processing>

    <junctions>
        <no-turnarounds value="true"/>
        <junctions.corner-detail value="5"/>
        <junctions.limit-turn-speed value="5.5"/>
        <rectangular-lane-cut value="false"/>
    </junctions>

    <pedestrian>
        <walkingareas value="false"/>
    </pedestrian>

    <report>
        <aggregate-warnings value="5"/>
    </report>

</configuration>
-->

<net version="1.9" junctionCornerDetail="5" limitTurnSpeed="5.50" xmlns:xsi="http://www.w3.org/2001/XMLSchema-instance" xsi:noNamespaceSchemaLocation="http://sumo.dlr.de/xsd/net_file.xsd">

    <location netOffset="0.00,0.00" convBoundary="2364.85,1168.98,7743.44,6247.67" origBoundary="-10000000000.00,-10000000000.00,10000000000.00,10000000000.00" projParameter="!"/>

    <type id="highway.bridleway" priority="1" numLanes="1" speed="2.78" allow="pedestrian" oneway="1" width="2.00"/>
    <type id="highway.bus_guideway" priority="1" numLanes="1" speed="27.78" allow="bus" oneway="1"/>
    <type id="highway.cycleway" priority="1" numLanes="1" speed="8.33" allow="bicycle" oneway="1" width="1.00"/>
    <type id="highway.footway" priority="1" numLanes="1" speed="2.78" allow="pedestrian" oneway="1" width="2.00"/>
    <type id="highway.ford" priority="1" numLanes="1" speed="2.78" allow="army" oneway="1"/>
    <type id="highway.living_street" priority="2" numLanes="1" speed="2.78" disallow="tram rail_urban rail rail_electric rail_fast ship" oneway="1"/>
    <type id="highway.motorway" priority="14" numLanes="2" speed="39.44" allow="private emergency authority army vip passenger hov taxi bus coach delivery truck trailer motorcycle evehicle custom1 custom2" oneway="1"/>
    <type id="highway.motorway_link" priority="9" numLanes="1" speed="22.22" allow="private emergency authority army vip passenger hov taxi bus coach delivery truck trailer motorcycle evehicle custom1 custom2" oneway="1"/>
    <type id="highway.path" priority="1" numLanes="1" speed="2.78" allow="pedestrian bicycle" oneway="1" width="2.00"/>
    <type id="highway.pedestrian" priority="1" numLanes="1" speed="2.78" allow="pedestrian" oneway="1" width="2.00"/>
    <type id="highway.primary" priority="12" numLanes="2" speed="27.78" disallow="tram rail_urban rail rail_electric rail_fast ship" oneway="1"/>
    <type id="highway.primary_link" priority="7" numLanes="1" speed="22.22" disallow="tram rail_urban rail rail_electric rail_fast ship" oneway="1"/>
    <type id="highway.raceway" priority="15" numLanes="2" speed="83.33" allow="vip" oneway="1"/>
    <type id="highway.residential" priority="3" numLanes="1" speed="13.89" disallow="tram rail_urban rail rail_electric rail_fast ship" oneway="1"/>
    <type id="highway.secondary" priority="11" numLanes="1" speed="27.78" disallow="tram rail_urban rail rail_electric rail_fast ship" oneway="1"/>
    <type id="highway.secondary_link" priority="6" numLanes="1" speed="22.22" disallow="tram rail_urban rail rail_electric rail_fast ship" oneway="1"/>
    <type id="highway.service" priority="1" numLanes="1" speed="5.56" allow="pedestrian delivery bicycle" oneway="1"/>
    <type id="highway.stairs" priority="1" numLanes="1" speed="1.39" allow="pedestrian" oneway="1" width="2.00"/>
    <type id="highway.step" priority="1" numLanes="1" speed="1.39" allow="pedestrian" oneway="1" width="2.00"/>
    <type id="highway.steps" priority="1" numLanes="1" speed="1.39" allow="pedestrian" oneway="1" width="2.00"/>
    <type id="highway.tertiary" priority="10" numLanes="1" speed="22.22" disallow="tram rail_urban rail rail_electric rail_fast ship" oneway="1"/>
    <type id="highway.tertiary_link" priority="5" numLanes="1" speed="22.22" disallow="tram rail_urban rail rail_electric rail_fast ship" oneway="1"/>
    <type id="highway.track" priority="1" numLanes="1" speed="5.56" allow="pedestrian motorcycle moped bicycle" oneway="1"/>
    <type id="highway.trunk" priority="13" numLanes="2" speed="27.78" disallow="pedestrian bicycle tram rail_urban rail rail_electric rail_fast ship" oneway="1"/>
    <type id="highway.trunk_link" priority="8" numLanes="1" speed="22.22" disallow="pedestrian bicycle tram rail_urban rail rail_electric rail_fast ship" oneway="1"/>
    <type id="highway.unclassified" priority="4" numLanes="1" speed="13.89" disallow="tram rail_urban rail rail_electric rail_fast ship" oneway="1"/>
    <type id="highway.unsurfaced" priority="1" numLanes="1" speed="8.33" disallow="tram rail_urban rail rail_electric rail_fast ship" oneway="1"/>
    <type id="railway.highspeed" priority="21" numLanes="1" speed="69.44" allow="rail_fast" oneway="1"/>
    <type id="railway.light_rail" priority="19" numLanes="1" speed="27.78" allow="rail_urban" oneway="1"/>
    <type id="railway.preserved" priority="16" numLanes="1" speed="27.78" allow="rail" oneway="1"/>
    <type id="railway.rail" priority="20" numLanes="1" speed="44.44" allow="rail" oneway="1"/>
    <type id="railway.subway" priority="18" numLanes="1" speed="27.78" allow="rail_urban" oneway="1"/>
    <type id="railway.tram" priority="17" numLanes="1" speed="13.89" allow="tram" oneway="1"/>

    <edge id=":1102845227_0" function="internal">
        <lane id=":1102845227_0_0" index="0" disallow="tram rail_urban rail rail_electric rail_fast ship" speed="11.11" length="0.33" shape="6002.73,3620.60 6002.63,3620.93"/>
        <lane id=":1102845227_0_1" index="1" disallow="tram rail_urban rail rail_electric rail_fast ship" speed="11.11" length="0.33" shape="5999.67,3619.66 5999.58,3619.96"/>
    </edge>
    <edge id=":1102845227_2" function="internal">
        <lane id=":1102845227_2_0" index="0" disallow="tram rail_urban rail rail_electric rail_fast ship" speed="11.11" length="0.26" shape="5993.48,3618.01 5993.56,3617.78"/>
        <lane id=":1102845227_2_1" index="1" disallow="tram rail_urban rail rail_electric rail_fast ship" speed="11.11" length="0.26" shape="5996.53,3618.99 5996.61,3618.72"/>
    </edge>
    <edge id=":1363831225_0" function="internal">
        <lane id=":1363831225_0_0" index="0" allow="private emergency authority army vip passenger hov taxi bus coach delivery truck trailer motorcycle evehicle custom1 custom2" speed="4.25" length="2.48" shape="5259.31,1902.98 5258.96,1903.08 5258.73,1903.19 5258.55,1903.37 5258.34,1903.67"/>
        <lane id=":1363831225_0_1" index="1" allow="private emergency authority army vip passenger hov taxi bus coach delivery truck trailer motorcycle evehicle custom1 custom2" speed="6.73" length="2.48" shape="5258.56,1899.87 5257.51,1900.16 5256.82,1900.50 5256.27,1901.05 5255.65,1901.95"/>
    </edge>
    <edge id=":1403960984_0" function="internal">
        <lane id=":1403960984_0_0" index="0" disallow="tram rail_urban rail rail_electric rail_fast ship" speed="11.11" length="1.62" shape="3060.51,3984.41 3062.13,3984.58"/>
        <lane id=":1403960984_0_1" index="1" disallow="tram rail_urban rail rail_electric rail_fast ship" speed="11.11" length="1.62" shape="3063.57,3985.35 3065.19,3985.53"/>
        <lane id=":1403960984_0_2" index="2" disallow="tram rail_urban rail rail_electric rail_fast ship" speed="11.11" length="1.62" shape="3066.63,3986.29 3068.24,3986.48"/>
    </edge>
    <edge id=":1470543871_0" function="internal">
        <lane id=":1470543871_0_0" index="0" disallow="tram rail_urban rail rail_electric rail_fast ship" speed="13.89" length="8.21" shape="6327.65,2983.42 6329.57,2984.86 6331.12,2985.54 6332.67,2986.22 6334.62,2987.64"/>
        <lane id=":1470543871_0_1" index="1" disallow="tram rail_urban rail rail_electric rail_fast ship" speed="13.89" length="8.21" shape="6325.47,2985.76 6327.40,2987.22 6328.96,2987.90 6330.52,2988.58 6332.47,2990.01"/>
    </edge>
    <edge id=":1553144380_0" function="internal">
        <lane id=":1553144380_0_0" index="0" allow="private emergency authority army vip passenger hov taxi bus coach delivery truck trailer motorcycle evehicle custom1 custom2" speed="25.00" length="0.29" shape="4953.64,1602.97 4953.82,1603.11"/>
        <lane id=":1553144380_0_1" index="1" allow="private emergency authority army vip passenger hov taxi bus coach delivery truck trailer motorcycle evehicle custom1 custom2" speed="25.00" length="0.29" shape="4951.70,1605.51 4951.93,1605.68"/>
        <lane id=":1553144380_0_2" index="2" allow="private emergency authority army vip passenger hov taxi bus coach delivery truck trailer motorcycle evehicle custom1 custom2" speed="25.00" length="0.29" shape="4949.76,1608.06 4950.03,1608.26"/>
    </edge>
    <edge id=":1625424073_0" function="internal">
        <lane id=":1625424073_0_0" index="0" disallow="tram rail_urban rail rail_electric rail_fast ship" speed="11.11" length="0.28" shape="3514.02,1534.99 3513.77,1534.89"/>
        <lane id=":1625424073_0_1" index="1" disallow="tram rail_urban rail rail_electric rail_fast ship" speed="11.11" length="0.28" shape="3515.20,1532.01 3514.93,1531.91"/>
    </edge>
    <edge id=":1625424073_2" function="internal">
        <lane id=":1625424073_2_0" index="0" disallow="tram rail_urban rail rail_electric rail_fast ship" speed="11.11" length="0.32" shape="3517.25,1525.94 3517.56,1526.06"/>
        <lane id=":1625424073_2_1" index="1" disallow="tram rail_urban rail rail_electric rail_fast ship" speed="11.11" length="0.32" shape="3516.09,1528.92 3516.38,1529.04"/>
    </edge>
    <edge id=":184514742_0" function="internal">
        <lane id=":184514742_0_0" index="0" allow="private emergency authority army vip passenger hov taxi bus coach delivery truck trailer motorcycle evehicle custom1 custom2" speed="25.00" length="0.29" shape="6817.62,4230.70 6817.54,4231.03"/>
        <lane id=":184514742_0_1" index="1" allow="private emergency authority army vip passenger hov taxi bus coach delivery truck trailer motorcycle evehicle custom1 custom2" speed="25.00" length="0.29" shape="6814.50,4229.98 6814.44,4230.26"/>
        <lane id=":184514742_0_2" index="2" allow="private emergency authority army vip passenger hov taxi bus coach delivery truck trailer motorcycle evehicle custom1 custom2" speed="25.00" length="0.29" shape="6811.38,4229.26 6811.33,4229.49"/>
    </edge>
    <edge id=":2057182524_0" function="internal">
        <lane id=":2057182524_0_0" index="0" disallow="pedestrian bicycle tram rail_urban rail rail_electric rail_fast ship" speed="25.00" length="1.02" shape="5878.82,5750.50 5878.54,5750.27 5878.36,5750.11 5878.19,5749.95 5877.94,5749.69"/>
        <lane id=":2057182524_0_1" index="1" disallow="pedestrian bicycle tram rail_urban rail rail_electric rail_fast ship" speed="25.00" length="1.02" shape="5880.87,5748.04 5880.67,5747.88 5880.54,5747.77 5880.42,5747.65 5880.24,5747.47"/>
    </edge>
    <edge id=":2057182524_2" function="internal">
        <lane id=":2057182524_2_0" index="0" disallow="pedestrian bicycle tram rail_urban rail rail_electric rail_fast ship" speed="25.00" length="0.34" shape="5884.84,5743.01 5884.87,5743.05 5884.90,5743.07 5884.93,5743.09 5884.96,5743.13"/>
        <lane id=":2057182524_2_1" index="1" disallow="pedestrian bicycle tram rail_urban rail rail_electric rail_fast ship" speed="25.00" length="0.34" shape="5882.54,5745.24 5882.65,5745.35 5882.72,5745.42 5882.80,5745.49 5882.91,5745.58"/>
    </edge>
    <edge id=":2057182598_0" function="internal">
        <lane id=":2057182598_0_0" index="0" disallow="pedestrian bicycle tram rail_urban rail rail_electric rail_fast ship" speed="18.05" length="1.06" shape="5811.24,5137.40 5811.17,5137.26 5811.11,5137.17 5811.04,5137.09 5810.93,5136.98"/>
        <lane id=":2057182598_0_1" index="1" disallow="pedestrian bicycle tram rail_urban rail rail_electric rail_fast ship" speed="11.53" length="1.06" shape="5814.10,5135.97 5813.88,5135.55 5813.71,5135.28 5813.50,5135.03 5813.17,5134.70"/>
    </edge>
    <edge id=":2057182598_2" function="internal">
        <lane id=":2057182598_2_0" index="0" disallow="pedestrian bicycle tram rail_urban rail rail_electric rail_fast ship" speed="17.45" length="3.18" shape="5817.65,5130.13 5818.43,5130.90 5818.92,5131.48 5819.32,5132.12 5819.82,5133.10"/>
        <lane id=":2057182598_2_1" index="1" disallow="pedestrian bicycle tram rail_urban rail rail_electric rail_fast ship" speed="14.79" length="3.18" shape="5815.41,5132.41 5815.96,5132.97 5816.31,5133.38 5816.60,5133.84 5816.96,5134.53"/>
    </edge>
    <edge id=":208539693_0" function="internal">
        <lane id=":208539693_0_0" index="0" allow="private emergency authority army vip passenger hov taxi bus coach delivery truck trailer motorcycle evehicle custom1 custom2" speed="25.00" length="8.11" shape="5509.01,1939.72 5511.55,1939.88 5513.36,1939.25 5515.16,1938.65 5517.66,1938.92"/>
        <lane id=":208539693_0_1" index="1" allow="private emergency authority army vip passenger hov taxi bus coach delivery truck trailer motorcycle evehicle custom1 custom2" speed="25.00" length="8.11" shape="5509.01,1939.72 5516.69,1941.97"/>
        <lane id=":208539693_0_2" index="2" allow="private emergency authority army vip passenger hov taxi bus coach delivery truck trailer motorcycle evehicle custom1 custom2" speed="25.00" length="8.11" shape="5508.18,1942.81 5515.73,1945.02"/>
        <lane id=":208539693_0_3" index="3" allow="private emergency authority army vip passenger hov taxi bus coach delivery truck trailer motorcycle evehicle custom1 custom2" speed="25.00" length="8.11" shape="5507.35,1945.90 5514.76,1948.07"/>
    </edge>
    <edge id=":20953772_0" function="internal">
        <lane id=":20953772_0_0" index="0" disallow="tram rail_urban rail rail_electric rail_fast ship" speed="11.11" length="18.51" shape="5604.99,4934.87 5600.87,4931.47 5597.45,4929.99 5593.60,4929.26 5588.20,4928.10"/>
    </edge>
    <edge id=":20953772_1" function="internal">
        <lane id=":20953772_1_0" index="0" disallow="tram rail_urban rail rail_electric rail_fast ship" speed="12.50" length="23.32" shape="5604.99,4934.87 5600.87,4930.01 5598.57,4925.43 5597.07,4920.36 5595.40,4914.04"/>
    </edge>
    <edge id=":20953772_2" function="internal">
        <lane id=":20953772_2_0" index="0" disallow="tram rail_urban rail rail_electric rail_fast ship" speed="11.11" length="6.79" shape="5607.23,4932.59 5602.76,4928.85 5601.88,4928.45"/>
    </edge>
    <edge id=":20953772_3" function="internal">
        <lane id=":20953772_3_0" index="0" disallow="tram rail_urban rail rail_electric rail_fast ship" speed="12.50" length="21.74" shape="5607.23,4932.59 5603.24,4927.95 5601.22,4923.84 5600.02,4919.25 5598.48,4913.15"/>
    </edge>
    <edge id=":20953772_12" function="internal">
        <lane id=":20953772_12_0" index="0" disallow="tram rail_urban rail rail_electric rail_fast ship" speed="11.11" length="13.35" shape="5601.88,4928.45 5599.06,4927.17 5594.90,4926.31 5589.04,4925.01"/>
    </edge>
    <edge id=":20953772_4" function="internal">
        <lane id=":20953772_4_0" index="0" disallow="tram rail_urban rail rail_electric rail_fast ship" speed="12.50" length="18.51" shape="5604.62,4911.36 5605.89,4916.74 5606.69,4920.57 5608.24,4923.97 5611.71,4928.02"/>
    </edge>
    <edge id=":20953772_5" function="internal">
        <lane id=":20953772_5_0" index="0" disallow="tram rail_urban rail rail_electric rail_fast ship" speed="9.67" length="30.03" shape="5604.62,4911.36 5605.36,4919.73 5602.49,4925.69 5596.58,4928.67 5588.20,4928.10"/>
    </edge>
    <edge id=":20953772_6" function="internal">
        <lane id=":20953772_6_0" index="0" disallow="tram rail_urban rail rail_electric rail_fast ship" speed="12.50" length="20.15" shape="5601.55,4912.26 5602.96,4918.10 5603.90,4922.24 5605.65,4925.90 5609.47,4930.30"/>
    </edge>
    <edge id=":20953772_7" function="internal">
        <lane id=":20953772_7_0" index="0" disallow="tram rail_urban rail rail_electric rail_fast ship" speed="8.81" length="24.67" shape="5601.55,4912.26 5602.67,4919.62 5600.96,4924.19 5596.42,4925.99 5589.04,4925.01"/>
    </edge>
    <edge id=":20953772_8" function="internal">
        <lane id=":20953772_8_0" index="0" disallow="tram rail_urban rail rail_electric rail_fast ship" speed="5.65" length="9.26" shape="5590.70,4918.83 5593.48,4919.20 5595.18,4918.52 5595.83,4916.80 5595.40,4914.04"/>
    </edge>
    <edge id=":20953772_9" function="internal">
        <lane id=":20953772_9_0" index="0" disallow="tram rail_urban rail rail_electric rail_fast ship" speed="11.11" length="23.32" shape="5590.70,4918.83 5597.06,4920.38 5602.15,4921.78 5606.78,4924.00 5611.71,4928.02"/>
    </edge>
    <edge id=":20953772_10" function="internal">
        <lane id=":20953772_10_0" index="0" disallow="tram rail_urban rail rail_electric rail_fast ship" speed="7.40" length="6.94" shape="5589.87,4921.92 5594.95,4922.60 5596.64,4921.93"/>
    </edge>
    <edge id=":20953772_11" function="internal">
        <lane id=":20953772_11_0" index="0" disallow="tram rail_urban rail rail_electric rail_fast ship" speed="11.11" length="21.74" shape="5589.87,4921.92 5596.00,4923.34 5600.62,4924.46 5604.76,4926.41 5609.47,4930.30"/>
    </edge>
    <edge id=":20953772_13" function="internal">
        <lane id=":20953772_13_0" index="0" disallow="tram rail_urban rail rail_electric rail_fast ship" speed="7.40" length="10.02" shape="5596.64,4921.93 5598.07,4921.36 5599.25,4918.21 5598.48,4913.15"/>
    </edge>
    <edge id=":20953780_0" function="internal">
        <lane id=":20953780_0_0" index="0" disallow="tram rail_urban rail rail_electric rail_fast ship" speed="11.11" length="24.60" shape="4831.88,4880.52 4825.00,4878.00 4818.88,4874.99 4813.67,4872.21 4809.53,4870.34"/>
    </edge>
    <edge id=":20953780_1" function="internal">
        <lane id=":20953780_1_0" index="0" disallow="tram rail_urban rail rail_electric rail_fast ship" speed="10.31" length="13.79" shape="4831.88,4880.52 4825.61,4877.73 4821.81,4873.61 4821.50,4872.32"/>
        <lane id=":20953780_1_1" index="1" disallow="tram rail_urban rail rail_electric rail_fast ship" speed="9.20" length="7.28" shape="4832.76,4877.44 4827.81,4875.24 4826.55,4873.87"/>
    </edge>
    <edge id=":20953780_7" function="internal">
        <lane id=":20953780_7_0" index="0" disallow="tram rail_urban rail rail_electric rail_fast ship" speed="10.31" length="11.15" shape="4821.50,4872.32 4820.49,4868.17 4821.66,4861.40"/>
    </edge>
    <edge id=":20953780_8" function="internal">
        <lane id=":20953780_8_0" index="0" disallow="tram rail_urban rail rail_electric rail_fast ship" speed="9.20" length="12.36" shape="4826.55,4873.87 4824.82,4872.00 4823.79,4867.71 4824.70,4862.38"/>
    </edge>
    <edge id=":20953780_3" function="internal">
        <lane id=":20953780_3_0" index="0" disallow="tram rail_urban rail rail_electric rail_fast ship" speed="6.43" length="9.03" shape="4830.79,4864.35 4830.37,4866.80 4830.85,4868.78 4832.22,4870.27 4834.50,4871.28"/>
    </edge>
    <edge id=":20953780_4" function="internal">
        <lane id=":20953780_4_0" index="0" disallow="tram rail_urban rail rail_electric rail_fast ship" speed="9.86" length="22.20" shape="4827.75,4863.37 4825.19,4868.20 4821.30,4870.97 4816.08,4871.69 4809.53,4870.34"/>
    </edge>
    <edge id=":20953780_5" function="internal">
        <lane id=":20953780_5_0" index="0" disallow="tram rail_urban rail rail_electric rail_fast ship" speed="7.37" length="11.94" shape="4810.51,4867.29 4813.01,4867.52 4815.19,4866.45 4817.06,4864.08 4818.62,4860.41"/>
    </edge>
    <edge id=":20953780_6" function="internal">
        <lane id=":20953780_6_0" index="0" disallow="tram rail_urban rail rail_electric rail_fast ship" speed="11.11" length="24.18" shape="4810.51,4867.29 4833.63,4874.36"/>
    </edge>
    <edge id=":20953851_0" function="internal">
        <lane id=":20953851_0_0" index="0" disallow="tram rail_urban rail rail_electric rail_fast ship" speed="11.11" length="0.31" shape="5981.65,3686.81 5981.55,3687.12"/>
        <lane id=":20953851_0_1" index="1" disallow="tram rail_urban rail rail_electric rail_fast ship" speed="11.11" length="0.31" shape="5978.60,3685.84 5978.51,3686.13"/>
    </edge>
    <edge id=":20953851_2" function="internal">
        <lane id=":20953851_2_0" index="0" disallow="tram rail_urban rail rail_electric rail_fast ship" speed="11.11" length="0.29" shape="5972.42,3684.17 5972.50,3683.90"/>
        <lane id=":20953851_2_1" index="1" disallow="tram rail_urban rail rail_electric rail_fast ship" speed="11.11" length="0.29" shape="5975.46,3685.15 5975.55,3684.87"/>
    </edge>
    <edge id=":20953852_0" function="internal">
        <lane id=":20953852_0_0" index="0" disallow="tram rail_urban rail rail_electric rail_fast ship" speed="11.11" length="0.30" shape="6069.98,3407.97 6069.89,3408.26"/>
        <lane id=":20953852_0_1" index="1" disallow="tram rail_urban rail rail_electric rail_fast ship" speed="11.11" length="0.30" shape="6066.93,3407.01 6066.84,3407.30"/>
    </edge>
    <edge id=":20953852_2" function="internal">
        <lane id=":20953852_2_0" index="0" disallow="tram rail_urban rail rail_electric rail_fast ship" speed="11.11" length="0.30" shape="6060.74,3405.36 6060.83,3405.08"/>
        <lane id=":20953852_2_1" index="1" disallow="tram rail_urban rail rail_electric rail_fast ship" speed="11.11" length="0.30" shape="6063.79,3406.33 6063.88,3406.05"/>
    </edge>
    <edge id=":20953853_0" function="internal">
        <lane id=":20953853_0_0" index="0" disallow="tram rail_urban rail rail_electric rail_fast ship" speed="13.89" length="0.26" shape="6198.50,3007.25 6198.43,3007.48"/>
        <lane id=":20953853_0_1" index="1" disallow="tram rail_urban rail rail_electric rail_fast ship" speed="13.89" length="0.26" shape="6195.47,3006.22 6195.38,3006.49"/>
    </edge>
    <edge id=":20953853_2" function="internal">
        <lane id=":20953853_2_0" index="0" disallow="tram rail_urban rail rail_electric rail_fast ship" speed="13.89" length="0.33" shape="6189.30,3004.50 6189.41,3004.17"/>
        <lane id=":20953853_2_1" index="1" disallow="tram rail_urban rail rail_electric rail_fast ship" speed="13.89" length="0.33" shape="6192.34,3005.49 6192.44,3005.20"/>
    </edge>
    <edge id=":20964462_0" function="internal">
        <lane id=":20964462_0_0" index="0" disallow="tram rail_urban rail rail_electric rail_fast ship" speed="11.11" length="20.65" shape="4332.21,4718.14 4312.50,4711.98"/>
    </edge>
    <edge id=":20964462_1" function="internal">
        <lane id=":20964462_1_0" index="0" disallow="tram rail_urban rail rail_electric rail_fast ship" speed="9.37" length="19.68" shape="4332.21,4718.14 4326.08,4715.68 4322.06,4712.69 4320.15,4709.17 4320.36,4705.12"/>
        <lane id=":20964462_1_1" index="1" disallow="tram rail_urban rail rail_electric rail_fast ship" speed="8.73" length="16.94" shape="4332.21,4718.14 4327.42,4716.09 4324.36,4713.38 4323.03,4710.02 4323.43,4706.01"/>
    </edge>
    <edge id=":20964462_3" function="internal">
        <lane id=":20964462_3_0" index="0" disallow="tram rail_urban rail rail_electric rail_fast ship" speed="6.61" length="9.27" shape="4329.57,4707.81 4329.18,4710.39 4329.65,4712.47 4331.00,4714.04 4333.22,4715.10"/>
    </edge>
    <edge id=":20964462_4" function="internal">
        <lane id=":20964462_4_0" index="0" disallow="tram rail_urban rail rail_electric rail_fast ship" speed="8.66" length="16.87" shape="4326.50,4706.91 4324.70,4710.41 4321.76,4712.42 4317.70,4712.94 4312.50,4711.98"/>
    </edge>
    <edge id=":20964462_5" function="internal">
        <lane id=":20964462_5_0" index="0" disallow="tram rail_urban rail rail_electric rail_fast ship" speed="6.50" length="9.03" shape="4313.41,4708.91 4315.86,4709.27 4317.83,4708.76 4319.33,4707.37 4320.36,4705.12"/>
        <lane id=":20964462_5_1" index="1" disallow="tram rail_urban rail rail_electric rail_fast ship" speed="7.32" length="11.73" shape="4313.41,4708.91 4317.20,4709.67 4320.14,4709.44 4322.21,4708.22 4323.43,4706.01"/>
    </edge>
    <edge id=":20964462_7" function="internal">
        <lane id=":20964462_7_0" index="0" disallow="tram rail_urban rail rail_electric rail_fast ship" speed="11.11" length="20.75" shape="4313.41,4708.91 4333.22,4715.10"/>
    </edge>
    <edge id=":20964485_0" function="internal">
        <lane id=":20964485_0_0" index="0" allow="private emergency authority army vip passenger hov taxi bus coach delivery truck trailer motorcycle evehicle custom1 custom2" speed="25.00" length="13.04" shape="6050.95,5911.21 6048.61,5908.27 6046.75,5906.48 6044.73,5904.83 6041.88,5902.33"/>
        <lane id=":20964485_0_1" index="1" allow="private emergency authority army vip passenger hov taxi bus coach delivery truck trailer motorcycle evehicle custom1 custom2" speed="25.00" length="13.04" shape="6053.53,5909.32 6051.08,5906.24 6049.15,5904.34 6047.04,5902.61 6044.06,5899.99"/>
    </edge>
    <edge id=":20964485_2" function="internal">
        <lane id=":20964485_2_0" index="0" allow="private emergency authority army vip passenger hov taxi bus coach delivery truck trailer motorcycle evehicle custom1 custom2" speed="25.00" length="7.53" shape="6048.42,5895.31 6050.03,5896.70 6051.23,5897.53 6052.52,5898.24 6054.38,5899.30"/>
        <lane id=":20964485_2_1" index="1" allow="private emergency authority army vip passenger hov taxi bus coach delivery truck trailer motorcycle evehicle custom1 custom2" speed="25.00" length="7.53" shape="6046.24,5897.65 6047.99,5899.18 6049.30,5900.09 6050.70,5900.88 6052.73,5902.04"/>
    </edge>
    <edge id=":20964581_0" function="internal">
        <lane id=":20964581_0_0" index="0" disallow="tram rail_urban rail rail_electric rail_fast ship" speed="11.11" length="20.85" shape="4116.98,4654.18 4097.13,4647.80"/>
    </edge>
    <edge id=":20964581_1" function="internal">
        <lane id=":20964581_1_0" index="0" disallow="tram rail_urban rail rail_electric rail_fast ship" speed="8.68" length="7.97" shape="4116.98,4654.18 4112.14,4652.07 4110.12,4650.30"/>
    </edge>
    <edge id=":20964581_6" function="internal">
        <lane id=":20964581_6_0" index="0" disallow="tram rail_urban rail rail_electric rail_fast ship" speed="8.68" length="8.93" shape="4110.12,4650.30 4109.06,4649.36 4107.75,4646.04 4108.20,4642.12"/>
    </edge>
    <edge id=":20964581_2" function="internal">
        <lane id=":20964581_2_0" index="0" disallow="tram rail_urban rail rail_electric rail_fast ship" speed="6.52" length="9.08" shape="4114.31,4644.05 4113.89,4646.51 4114.36,4648.52 4115.71,4650.06 4117.94,4651.13"/>
    </edge>
    <edge id=":20964581_3" function="internal">
        <lane id=":20964581_3_0" index="0" disallow="tram rail_urban rail rail_electric rail_fast ship" speed="8.65" length="16.91" shape="4111.25,4643.08 4109.37,4646.55 4106.38,4648.50 4102.30,4648.92 4097.13,4647.80"/>
    </edge>
    <edge id=":20964581_4" function="internal">
        <lane id=":20964581_4_0" index="0" disallow="tram rail_urban rail rail_electric rail_fast ship" speed="6.48" length="9.03" shape="4098.12,4644.76 4100.56,4645.19 4102.55,4644.74 4104.08,4643.39 4105.15,4641.16"/>
    </edge>
    <edge id=":20964581_5" function="internal">
        <lane id=":20964581_5_0" index="0" disallow="tram rail_urban rail rail_electric rail_fast ship" speed="11.11" length="20.82" shape="4098.12,4644.76 4117.94,4651.13"/>
    </edge>
    <edge id=":20964582_0" function="internal">
        <lane id=":20964582_0_0" index="0" disallow="tram rail_urban rail rail_electric rail_fast ship" speed="11.11" length="20.82" shape="4624.59,4809.74 4604.80,4803.25"/>
    </edge>
    <edge id=":20964582_1" function="internal">
        <lane id=":20964582_1_0" index="0" disallow="tram rail_urban rail rail_electric rail_fast ship" speed="8.83" length="7.80" shape="4624.59,4809.74 4619.82,4807.60 4617.92,4805.87"/>
    </edge>
    <edge id=":20964582_6" function="internal">
        <lane id=":20964582_6_0" index="0" disallow="tram rail_urban rail rail_electric rail_fast ship" speed="8.83" length="9.22" shape="4617.92,4805.87 4616.77,4804.83 4615.44,4801.44 4615.82,4797.43"/>
    </edge>
    <edge id=":20964582_2" function="internal">
        <lane id=":20964582_2_0" index="0" disallow="tram rail_urban rail rail_electric rail_fast ship" speed="6.71" length="9.42" shape="4621.97,4799.20 4621.57,4801.83 4622.04,4803.96 4623.38,4805.58 4625.58,4806.70"/>
    </edge>
    <edge id=":20964582_3" function="internal">
        <lane id=":20964582_3_0" index="0" disallow="tram rail_urban rail rail_electric rail_fast ship" speed="8.61" length="17.07" shape="4618.89,4798.31 4617.07,4801.91 4614.11,4803.93 4610.02,4804.38 4604.80,4803.25"/>
    </edge>
    <edge id=":20964582_4" function="internal">
        <lane id=":20964582_4_0" index="0" disallow="tram rail_urban rail rail_electric rail_fast ship" speed="6.42" length="9.03" shape="4605.80,4800.22 4608.25,4800.65 4610.23,4800.18 4611.72,4798.82 4612.74,4796.54"/>
    </edge>
    <edge id=":20964582_5" function="internal">
        <lane id=":20964582_5_0" index="0" disallow="tram rail_urban rail rail_electric rail_fast ship" speed="11.11" length="20.81" shape="4605.80,4800.22 4625.58,4806.70"/>
    </edge>
    <edge id=":20979742_0" function="internal">