<?xml version="1.0" encoding="UTF-8"?>

<!-- generated on 2021-07-25 12:53:55 by Eclipse SUMO netedit Version 1.9.2
<configuration xmlns:xsi="http://www.w3.org/2001/XMLSchema-instance" xsi:noNamespaceSchemaLocation="http://sumo.dlr.de/xsd/netconvertConfiguration.xsd">

    <input>
        <sumo-net-file value="/home/fazel/Adaptive_Routing_W_Q_Learning_main/environments/sumo/networks/toronto/toronto.net.xml"/>
    </input>

    <output>
        <output-file value="/home/fazel/Adaptive_Routing_W_Q_Learning_main/environments/sumo/networks/toronto/trashtoronto.net.xml"/>
        <output.street-names value="true"/>
    </output>

    <processing>
        <geometry.min-radius.fix.railways value="false"/>
        <geometry.max-grade.fix value="false"/>
        <offset.disable-normalization value="true"/>
        <lefthand value="false"/>
    </processing>

    <junctions>
        <no-turnarounds value="true"/>
        <junctions.corner-detail value="5"/>
        <junctions.limit-turn-speed value="5.5"/>
        <rectangular-lane-cut value="false"/>
    </junctions>

    <pedestrian>
        <walkingareas value="false"/>
    </pedestrian>

    <report>
        <aggregate-warnings value="5"/>
    </report>

</configuration>
-->

<net version="1.9" junctionCornerDetail="5" limitTurnSpeed="5.50" xmlns:xsi="http://www.w3.org/2001/XMLSchema-instance" xsi:noNamespaceSchemaLocation="http://sumo.dlr.de/xsd/net_file.xsd">

    <location netOffset="0.00,0.00" convBoundary="2364.85,1168.98,7743.44,6247.67" origBoundary="-10000000000.00,-10000000000.00,10000000000.00,10000000000.00" projParameter="!"/>

    <type id="highway.bridleway" priority="1" numLanes="1" speed="2.78" allow="pedestrian" oneway="1" width="2.00"/>
    <type id="highway.bus_guideway" priority="1" numLanes="1" speed="27.78" allow="bus" oneway="1"/>
    <type id="highway.cycleway" priority="1" numLanes="1" speed="8.33" allow="bicycle" oneway="1" width="1.00"/>
    <type id="highway.footway" priority="1" numLanes="1" speed="2.78" allow="pedestrian" oneway="1" width="2.00"/>
    <type id="highway.ford" priority="1" numLanes="1" speed="2.78" allow="army" oneway="1"/>
    <type id="highway.living_street" priority="2" numLanes="1" speed="2.78" disallow="tram rail_urban rail rail_electric rail_fast ship" oneway="1"/>
    <type id="highway.motorway" priority="14" numLanes="2" speed="39.44" allow="private emergency authority army vip passenger hov taxi bus coach delivery truck trailer motorcycle evehicle custom1 custom2" oneway="1"/>
    <type id="highway.motorway_link" priority="9" numLanes="1" speed="22.22" allow="private emergency authority army vip passenger hov taxi bus coach delivery truck trailer motorcycle evehicle custom1 custom2" oneway="1"/>
    <type id="highway.path" priority="1" numLanes="1" speed="2.78" allow="pedestrian bicycle" oneway="1" width="2.00"/>
    <type id="highway.pedestrian" priority="1" numLanes="1" speed="2.78" allow="pedestrian" oneway="1" width="2.00"/>
    <type id="highway.primary" priority="12" numLanes="2" speed="27.78" disallow="tram rail_urban rail rail_electric rail_fast ship" oneway="1"/>
    <type id="highway.primary_link" priority="7" numLanes="1" speed="22.22" disallow="tram rail_urban rail rail_electric rail_fast ship" oneway="1"/>
    <type id="highway.raceway" priority="15" numLanes="2" speed="83.33" allow="vip" oneway="1"/>
    <type id="highway.residential" priority="3" numLanes="1" speed="13.89" disallow="tram rail_urban rail rail_electric rail_fast ship" oneway="1"/>
    <type id="highway.secondary" priority="11" numLanes="1" speed="27.78" disallow="tram rail_urban rail rail_electric rail_fast ship" oneway="1"/>
    <type id="highway.secondary_link" priority="6" numLanes="1" speed="22.22" disallow="tram rail_urban rail rail_electric rail_fast ship" oneway="1"/>
    <type id="highway.service" priority="1" numLanes="1" speed="5.56" allow="pedestrian delivery bicycle" oneway="1"/>
    <type id="highway.stairs" priority="1" numLanes="1" speed="1.39" allow="pedestrian" oneway="1" width="2.00"/>
    <type id="highway.step" priority="1" numLanes="1" speed="1.39" allow="pedestrian" oneway="1" width="2.00"/>
    <type id="highway.steps" priority="1" numLanes="1" speed="1.39" allow="pedestrian" oneway="1" width="2.00"/>
    <type id="highway.tertiary" priority="10" numLanes="1" speed="22.22" disallow="tram rail_urban rail rail_electric rail_fast ship" oneway="1"/>
    <type id="highway.tertiary_link" priority="5" numLanes="1" speed="22.22" disallow="tram rail_urban rail rail_electric rail_fast ship" oneway="1"/>
    <type id="highway.track" priority="1" numLanes="1" speed="5.56" allow="pedestrian motorcycle moped bicycle" oneway="1"/>
    <type id="highway.trunk" priority="13" numLanes="2" speed="27.78" disallow="pedestrian bicycle tram rail_urban rail rail_electric rail_fast ship" oneway="1"/>
    <type id="highway.trunk_link" priority="8" numLanes="1" speed="22.22" disallow="pedestrian bicycle tram rail_urban rail rail_electric rail_fast ship" oneway="1"/>
    <type id="highway.unclassified" priority="4" numLanes="1" speed="13.89" disallow="tram rail_urban rail rail_electric rail_fast ship" oneway="1"/>
    <type id="highway.unsurfaced" priority="1" numLanes="1" speed="8.33" disallow="tram rail_urban rail rail_electric rail_fast ship" oneway="1"/>
    <type id="railway.highspeed" priority="21" numLanes="1" speed="69.44" allow="rail_fast" oneway="1"/>
    <type id="railway.light_rail" priority="19" numLanes="1" speed="27.78" allow="rail_urban" oneway="1"/>
    <type id="railway.preserved" priority="16" numLanes="1" speed="27.78" allow="rail" oneway="1"/>
    <type id="railway.rail" priority="20" numLanes="1" speed="44.44" allow="rail" oneway="1"/>
    <type id="railway.subway" priority="18" numLanes="1" speed="27.78" allow="rail_urban" oneway="1"/>
    <type id="railway.tram" priority="17" numLanes="1" speed="13.89" allow="tram" oneway="1"/>

    <edge id=":1102845227_0" function="internal">
        <lane id=":1102845227_0_0" index="0" disallow="tram rail_urban rail rail_electric rail_fast ship" speed="11.11" length="0.33" shape="6002.73,3620.60 6002.63,3620.93"/>
        <lane id=":1102845227_0_1" index="1" disallow="tram rail_urban rail rail_electric rail_fast ship" speed="11.11" length="0.33" shape="5999.67,3619.66 5999.58,3619.96"/>
    </edge>
    <edge id=":1102845227_2" function="internal">
        <lane id=":1102845227_2_0" index="0" disallow="tram rail_urban rail rail_electric rail_fast ship" speed="11.11" length="0.26" shape="5993.48,3618.01 5993.56,3617.78"/>
        <lane id=":1102845227_2_1" index="1" disallow="tram rail_urban rail rail_electric rail_fast ship" speed="11.11" length="0.26" shape="5996.53,3618.99 5996.61,3618.72"/>
    </edge>
    <edge id=":1403960984_0" function="internal">
        <lane id=":1403960984_0_0" index="0" disallow="tram rail_urban rail rail_electric rail_fast ship" speed="11.11" length="1.62" shape="3060.51,3984.41 3062.13,3984.58"/>
        <lane id=":1403960984_0_1" index="1" disallow="tram rail_urban rail rail_electric rail_fast ship" speed="11.11" length="1.62" shape="3063.57,3985.35 3065.19,3985.53"/>
        <lane id=":1403960984_0_2" index="2" disallow="tram rail_urban rail rail_electric rail_fast ship" speed="11.11" length="1.62" shape="3066.63,3986.29 3068.24,3986.48"/>
    </edge>
    <edge id=":1431131579_0" function="internal">
        <lane id=":1431131579_0_0" index="0" disallow="tram rail_urban rail rail_electric rail_fast ship" speed="11.11" length="0.23" shape="3412.98,1495.55 3412.79,1495.48"/>
        <lane id=":1431131579_0_1" index="1" disallow="tram rail_urban rail rail_electric rail_fast ship" speed="11.11" length="0.23" shape="3414.14,1492.56 3413.89,1492.47"/>
    </edge>
    <edge id=":1431131579_2" function="internal">
        <lane id=":1431131579_2_0" index="0" disallow="tram rail_urban rail rail_electric rail_fast ship" speed="11.11" length="0.34" shape="3416.10,1486.46 3416.44,1486.59"/>
        <lane id=":1431131579_2_1" index="1" disallow="tram rail_urban rail rail_electric rail_fast ship" speed="11.11" length="0.34" shape="3415.00,1489.47 3415.29,1489.58"/>
    </edge>
    <edge id=":1470543871_0" function="internal">
        <lane id=":1470543871_0_0" index="0" disallow="tram rail_urban rail rail_electric rail_fast ship" speed="13.89" length="8.21" shape="6327.65,2983.42 6329.57,2984.86 6331.12,2985.54 6332.67,2986.22 6334.62,2987.64"/>
        <lane id=":1470543871_0_1" index="1" disallow="tram rail_urban rail rail_electric rail_fast ship" speed="13.89" length="8.21" shape="6325.47,2985.76 6327.40,2987.22 6328.96,2987.90 6330.52,2988.58 6332.47,2990.01"/>
    </edge>
    <edge id=":1550992510_0" function="internal">
        <lane id=":1550992510_0_0" index="0" disallow="tram rail_urban rail rail_electric rail_fast ship" speed="11.11" length="0.30" shape="4019.24,2446.83 4018.95,2446.74"/>
        <lane id=":1550992510_0_1" index="1" disallow="tram rail_urban rail rail_electric rail_fast ship" speed="11.11" length="0.30" shape="4020.18,2443.77 4019.90,2443.69"/>
    </edge>
    <edge id=":1550992510_2" function="internal">
        <lane id=":1550992510_2_0" index="0" disallow="tram rail_urban rail rail_electric rail_fast ship" speed="11.11" length="0.30" shape="4021.78,2437.57 4022.07,2437.66"/>
        <lane id=":1550992510_2_1" index="1" disallow="tram rail_urban rail rail_electric rail_fast ship" speed="11.11" length="0.30" shape="4020.84,2440.63 4021.13,2440.72"/>
    </edge>
    <edge id=":1553144380_0" function="internal">
        <lane id=":1553144380_0_0" index="0" allow="private emergency authority army vip passenger hov taxi bus coach delivery truck trailer motorcycle evehicle custom1 custom2" speed="25.00" length="8.21" shape="4949.11,1597.96 4950.89,1599.59 4951.84,1600.98 4952.80,1602.38 4954.58,1604.00"/>
        <lane id=":1553144380_0_1" index="1" allow="private emergency authority army vip passenger hov taxi bus coach delivery truck trailer motorcycle evehicle custom1 custom2" speed="25.00" length="8.21" shape="4947.21,1600.53 4948.98,1602.16 4949.94,1603.56 4950.91,1604.95 4952.69,1606.57"/>
        <lane id=":1553144380_0_2" index="2" allow="private emergency authority army vip passenger hov taxi bus coach delivery truck trailer motorcycle evehicle custom1 custom2" speed="25.00" length="8.21" shape="4945.30,1603.10 4947.08,1604.73 4948.04,1606.13 4949.01,1607.53 4950.79,1609.15"/>
    </edge>
    <edge id=":1625424073_0" function="internal">
        <lane id=":1625424073_0_0" index="0" disallow="tram rail_urban rail rail_electric rail_fast ship" speed="11.11" length="0.30" shape="3514.02,1534.99 3513.74,1534.88"/>
        <lane id=":1625424073_0_1" index="1" disallow="tram rail_urban rail rail_electric rail_fast ship" speed="11.11" length="0.30" shape="3515.20,1532.01 3514.92,1531.90"/>
    </edge>
    <edge id=":1625424073_2" function="internal">
        <lane id=":1625424073_2_0" index="0" disallow="tram rail_urban rail rail_electric rail_fast ship" speed="11.11" length="0.30" shape="3517.28,1525.95 3517.56,1526.06"/>
        <lane id=":1625424073_2_1" index="1" disallow="tram rail_urban rail rail_electric rail_fast ship" speed="11.11" length="0.30" shape="3516.10,1528.93 3516.38,1529.04"/>
    </edge>
    <edge id=":184514742_0" function="internal">
        <lane id=":184514742_0_0" index="0" allow="private emergency authority army vip passenger hov taxi bus coach delivery truck trailer motorcycle evehicle custom1 custom2" speed="25.00" length="7.98" shape="6818.49,4226.96 6816.62,4234.76"/>
        <lane id=":184514742_0_1" index="1" allow="private emergency authority army vip passenger hov taxi bus coach delivery truck trailer motorcycle evehicle custom1 custom2" speed="25.00" length="7.98" shape="6815.38,4226.23 6813.51,4233.99"/>
        <lane id=":184514742_0_2" index="2" allow="private emergency authority army vip passenger hov taxi bus coach delivery truck trailer motorcycle evehicle custom1 custom2" speed="25.00" length="7.98" shape="6812.26,4225.51 6810.40,4233.22"/>
    </edge>
    <edge id=":1889248857_0" function="internal">
        <lane id=":1889248857_0_0" index="0" disallow="tram rail_urban rail rail_electric rail_fast ship" speed="11.11" length="8.56" shape="4669.70,2900.83 4669.46,2903.35 4670.05,2905.16 4670.64,2906.97 4670.36,2909.48"/>
        <lane id=":1889248857_0_1" index="1" disallow="tram rail_urban rail rail_electric rail_fast ship" speed="11.11" length="8.56" shape="4666.64,2899.90 4666.40,2902.41 4667.00,2904.21 4667.58,2906.01 4667.31,2908.51"/>
        <lane id=":1889248857_0_2" index="2" disallow="tram rail_urban rail rail_electric rail_fast ship" speed="11.11" length="8.56" shape="4666.64,2899.90 4664.26,2907.54"/>
    </edge>
    <edge id=":1889248857_3" function="internal">
        <lane id=":1889248857_3_0" index="0" disallow="tram rail_urban rail rail_electric rail_fast ship" speed="11.11" length="7.94" shape="4658.16,2905.60 4660.51,2898.04"/>
        <lane id=":1889248857_3_1" index="1" disallow="tram rail_urban rail rail_electric rail_fast ship" speed="11.11" length="7.94" shape="4661.21,2906.57 4663.58,2898.97"/>
    </edge>
    <edge id=":19881833-AddedOffRampNode_0" function="internal">
        <lane id=":19881833-AddedOffRampNode_0_0" index="0" allow="private emergency authority army vip passenger hov taxi bus coach delivery truck trailer motorcycle evehicle custom1 custom2" speed="22.01" length="1.39" shape="4247.77,1297.74 4247.08,1297.76 4246.61,1297.74 4246.15,1297.66 4245.48,1297.49"/>
        <lane id=":19881833-AddedOffRampNode_0_1" index="1" allow="private emergency authority army vip passenger hov taxi bus coach delivery truck trailer motorcycle evehicle custom1 custom2" speed="17.10" length="1.39" shape="4247.66,1294.55 4247.25,1294.56 4246.96,1294.54 4246.68,1294.49 4246.29,1294.39"/>
        <lane id=":19881833-AddedOffRampNode_0_2" index="2" allow="private emergency authority army vip passenger hov taxi bus coach delivery truck trailer motorcycle evehicle custom1 custom2" speed="25.00" length="1.39" shape="4247.55,1291.35 4247.41,1291.35 4247.32,1291.35 4247.22,1291.33 4247.09,1291.30"/>
    </edge>
    <edge id=":2056766505_0" function="internal">
        <lane id=":2056766505_0_0" index="0" allow="private emergency authority army vip passenger hov taxi bus coach delivery truck trailer motorcycle evehicle custom1 custom2" speed="25.00" length="8.12" shape="6269.16,6048.82 6269.92,6051.14 6271.19,6052.48 6272.48,6053.81 6273.33,6056.12"/>
        <lane id=":2056766505_0_1" index="1" allow="private emergency authority army vip passenger hov taxi bus coach delivery truck trailer motorcycle evehicle custom1 custom2" speed="25.00" length="8.12" shape="6269.16,6048.82 6270.16,6056.59"/>
        <lane id=":2056766505_0_2" index="2" allow="private emergency authority army vip passenger hov taxi bus coach delivery truck trailer motorcycle evehicle custom1 custom2" speed="25.00" length="8.12" shape="6265.98,6049.17 6267.00,6057.06"/>
        <lane id=":2056766505_0_3" index="3" allow="private emergency authority army vip passenger hov taxi bus coach delivery truck trailer motorcycle evehicle custom1 custom2" speed="25.00" length="8.12" shape="6262.80,6049.52 6263.83,6057.53"/>
    </edge>
    <edge id=":2056766536_0" function="internal">
        <lane id=":2056766536_0_0" index="0" allow="private emergency authority army vip passenger hov taxi bus coach delivery truck trailer motorcycle evehicle custom1 custom2" speed="23.61" length="9.48" shape="6241.58,5951.69 6241.81,5949.44 6242.38,5947.96 6243.03,5946.49 6243.51,5944.25"/>
        <lane id=":2056766536_0_1" index="1" allow="private emergency authority army vip passenger hov taxi bus coach delivery truck trailer motorcycle evehicle custom1 custom2" speed="23.61" length="9.48" shape="6241.58,5951.69 6242.30,5949.34 6243.95,5948.13 6245.69,5946.92 6246.69,5944.59"/>
        <lane id=":2056766536_0_2" index="2" allow="private emergency authority army vip passenger hov taxi bus coach delivery truck trailer motorcycle evehicle custom1 custom2" speed="23.61" length="9.48" shape="6241.58,5951.69 6242.78,5949.27 6245.50,5948.42 6248.34,5947.52 6249.87,5944.92"/>
    </edge>
    <edge id=":2057182524_0" function="internal">
        <lane id=":2057182524_0_0" index="0" disallow="pedestrian bicycle tram rail_urban rail rail_electric rail_fast ship" speed="16.67" length="20.36" shape="5879.23,5754.27 5874.45,5750.66 5871.39,5747.74 5868.42,5744.68 5863.94,5740.67"/>
        <lane id=":2057182524_0_1" index="1" disallow="pedestrian bicycle tram rail_urban rail rail_electric rail_fast ship" speed="16.67" length="20.36" shape="5881.04,5751.63 5876.29,5748.04 5873.31,5745.18 5870.42,5742.19 5865.98,5738.20"/>
    </edge>
    <edge id=":2057182524_2" function="internal">
        <lane id=":2057182524_2_0" index="0" disallow="pedestrian bicycle tram rail_urban rail rail_electric rail_fast ship" speed="15.28" length="19.99" shape="5870.95,5732.61 5873.38,5735.55 5876.06,5738.82 5879.61,5742.41 5884.66,5746.35"/>
        <lane id=":2057182524_2_1" index="1" disallow="pedestrian bicycle tram rail_urban rail rail_electric rail_fast ship" speed="15.28" length="19.99" shape="5870.95,5732.61 5873.06,5735.94 5875.06,5740.07 5877.98,5744.57 5882.85,5748.99"/>
    </edge>
    <edge id=":2057182524_4" function="internal">
        <lane id=":2057182524_4_0" index="0" disallow="pedestrian bicycle tram rail_urban rail rail_electric rail_fast ship" speed="16.67" length="19.84" shape="5868.39,5735.28 5871.39,5737.60 5874.90,5739.95 5879.22,5742.73 5884.66,5746.35"/>
        <lane id=":2057182524_4_1" index="1" disallow="pedestrian bicycle tram rail_urban rail rail_electric rail_fast ship" speed="16.67" length="19.84" shape="5868.39,5735.28 5871.09,5738.00 5873.96,5741.25 5877.65,5744.93 5882.85,5748.99"/>
    </edge>
    <edge id=":2057182564_0" function="internal">
        <lane id=":2057182564_0_0" index="0" disallow="tram rail_urban rail rail_electric rail_fast ship" speed="6.66" length="6.52" shape="5822.50,5658.78 5821.44,5660.12 5820.87,5661.56 5820.80,5663.11 5821.21,5664.77"/>
    </edge>
    <edge id=":2057182564_1" function="internal">
        <lane id=":2057182564_1_0" index="0" disallow="pedestrian bicycle tram rail_urban rail rail_electric rail_fast ship" speed="19.45" length="7.47" shape="5813.79,5658.42 5814.61,5656.18 5813.64,5654.04 5812.67,5651.90 5813.50,5649.67"/>
        <lane id=":2057182564_1_1" index="1" disallow="pedestrian bicycle tram rail_urban rail rail_electric rail_fast ship" speed="19.45" length="7.47" shape="5813.79,5658.42 5814.77,5656.73 5814.77,5655.18 5814.77,5653.62 5815.75,5651.95"/>
        <lane id=":2057182564_1_2" index="2" disallow="pedestrian bicycle tram rail_urban rail rail_electric rail_fast ship" speed="19.45" length="7.47" shape="5813.79,5658.42 5818.00,5654.22"/>
    </edge>
    <edge id=":2057182573_0" function="internal">
        <lane id=":2057182573_0_0" index="0" disallow="pedestrian bicycle tram rail_urban rail rail_electric rail_fast ship" speed="19.45" length="59.90" shape="5795.93,5677.74 5754.37,5634.60"/>
    </edge>
    <edge id=":2057182573_1" function="internal">
        <lane id=":2057182573_1_0" index="0" disallow="pedestrian bicycle tram rail_urban rail rail_electric rail_fast ship" speed="15.28" length="60.21" shape="5798.12,5675.41 5789.03,5666.22 5775.83,5652.46 5763.44,5639.23 5756.78,5631.65"/>
    </edge>
    <edge id=":2057182573_2" function="internal">
        <lane id=":2057182573_2_0" index="0" disallow="pedestrian bicycle tram rail_urban rail rail_electric rail_fast ship" speed="15.28" length="59.57" shape="5759.30,5629.86 5766.48,5637.79 5779.69,5651.55 5793.04,5665.19 5800.62,5672.77"/>
    </edge>
    <edge id=":2057182598_0" function="internal">
        <lane id=":2057182598_0_0" index="0" disallow="tram rail_urban rail rail_electric rail_fast ship" speed="10.16" length="7.42" shape="5867.10,5246.86 5865.60,5245.64 5864.34,5245.14 5862.91,5244.98 5860.91,5244.79"/>
        <lane id=":2057182598_0_1" index="1" disallow="tram rail_urban rail rail_electric rail_fast ship" speed="11.09" length="7.42" shape="5867.10,5246.86 5865.57,5244.97 5864.63,5243.42 5863.48,5242.28 5861.34,5241.62"/>
    </edge>
    <edge id=":2057182598_2" function="internal">
        <lane id=":2057182598_2_0" index="0" disallow="tram rail_urban rail rail_electric rail_fast ship" speed="13.89" length="8.71" shape="5863.72,5238.02 5864.99,5240.25 5866.11,5241.61 5867.43,5242.82 5869.34,5244.58"/>
    </edge>
    <edge id=":2057191494_0" function="internal">
        <lane id=":2057191494_0_0" index="0" disallow="tram rail_urban rail rail_electric rail_fast ship" speed="13.89" length="0.65" shape="5869.59,5214.49 5869.40,5214.55 5869.28,5214.60 5869.17,5214.67 5869.01,5214.78"/>
    </edge>
    <edge id=":20762091_0" function="internal">
        <lane id=":20762091_0_0" index="0" allow="private emergency authority army vip passenger hov taxi bus coach delivery truck trailer motorcycle evehicle custom1 custom2" speed="25.00" length="4.80" shape="7272.08,2482.22 7271.17,2481.49 7270.56,2480.96 7269.92,2480.48 7268.90,2479.92"/>
        <lane id=":20762091_0_1" index="1" allow="private emergency authority army vip passenger hov taxi bus coach delivery truck trailer motorcycle evehicle custom1 custom2" speed="25.00" length="4.80" shape="7273.97,2479.64 7272.92,2478.81 7272.22,2478.21 7271.47,2477.68 7270.30,2477.04"/>
        <lane id=":20762091_0_2" index="2" allow="private emergency authority army vip passenger hov taxi bus coach delivery truck trailer motorcycle evehicle custom1 custom2" speed="25.00" length="4.80" shape="7275.87,2477.06 7274.67,2476.13 7273.87,2475.47 7273.02,2474.87 7271.70,2474.17"/>
        <lane id=":20762091_0_3" index="3" allow="private emergency authority army vip passenger hov taxi bus coach delivery truck trailer motorcycle evehicle custom1 custom2" speed="25.00" length="4.80" shape="7277.76,2474.48 7276.43,2473.45 7275.53,2472.72 7274.58,2472.07 7273.10,2471.29"/>
    </edge>
    <edge id=":208533377_0" function="internal">
        <lane id=":208533377_0_0" index="0" allow="private emergency authority army vip passenger hov taxi bus coach delivery truck trailer motorcycle evehicle custom1 custom2" speed="25.00" length="0.86" shape="4312.75,1308.82 4312.47,1308.75 4312.29,1308.68 4312.10,1308.60 4311.83,1308.52"/>
        <lane id=":208533377_0_1" index="1" allow="private emergency authority army vip passenger hov taxi bus coach delivery truck trailer motorcycle evehicle custom1 custom2" speed="25.00" length="0.86" shape="4313.40,1305.69 4313.15,1305.62 4312.99,1305.56 4312.83,1305.48 4312.59,1305.41"/>
        <lane id=":208533377_0_2" index="2" allow="private emergency authority army vip passenger hov taxi bus coach delivery truck trailer motorcycle evehicle custom1 custom2" speed="25.00" length="0.86" shape="4314.05,1302.56 4313.84,1302.50 4313.70,1302.43 4313.56,1302.37 4313.35,1302.30"/>
    </edge>
    <edge id=":208539693_0" function="internal">
        <lane id=":208539693_0_0" index="0" allow="private emergency authority army vip passenger hov taxi bus coach delivery truck trailer motorcycle evehicle custom1 custom2" speed="25.00" length="8.11" shape="5509.01,1939.72 5511.55,1939.88 5513.36,1939.25 5515.16,1938.65 5517.66,1938.92"/>
        <lane id=":208539693_0_1" index="1" allow="private emergency authority army vip passenger hov taxi bus coach delivery truck trailer motorcycle evehicle custom1 custom2" speed="25.00" length="8.11" shape="5509.01,1939.72 5516.69,1941.97"/>
        <lane id=":208539693_0_2" index="2" allow="private emergency authority army vip passenger hov taxi bus coach delivery truck trailer motorcycle evehicle custom1 custom2" speed="25.00" length="8.11" shape="5508.18,1942.81 5515.73,1945.02"/>
        <lane id=":208539693_0_3" index="3" allow="private emergency authority army vip passenger hov taxi bus coach delivery truck trailer motorcycle evehicle custom1 custom2" speed="25.00" length="8.11" shape="5507.35,1945.90 5514.76,1948.07"/>
    </edge>
    <edge id=":208539709_0" function="internal">
        <lane id=":208539709_0_0" index="0" allow="private emergency authority army vip passenger hov taxi bus coach delivery truck trailer motorcycle evehicle custom1 custom2" speed="22.22" length="8.73" shape="5511.04,1978.95 5508.55,1978.74 5506.77,1979.36 5505.00,1979.94 5502.53,1979.66"/>
    </edge>
    <edge id=":20953421_0" function="internal">
        <lane id=":20953421_0_0" index="0" disallow="tram rail_urban rail rail_electric rail_fast ship" speed="11.11" length="11.69" shape="5814.45,5126.98 5817.17,5129.01 5819.49,5129.78 5821.82,5130.55 5824.56,5132.55"/>
        <lane id=":20953421_0_1" index="1" disallow="tram rail_urban rail rail_electric rail_fast ship" speed="11.11" length="11.69" shape="5812.19,5129.25 5814.91,5131.28 5817.24,5132.06 5819.57,5132.83 5822.32,5134.84"/>
    </edge>
    <edge id=":20953421_2" function="internal">
        <lane id=":20953421_2_0" index="0" disallow="tram rail_urban rail rail_electric rail_fast ship" speed="6.58" length="7.46" shape="5808.52,5140.58 5809.29,5138.75 5809.41,5137.01 5808.86,5135.34 5807.66,5133.77"/>
        <lane id=":20953421_2_1" index="1" disallow="tram rail_urban rail rail_electric rail_fast ship" speed="8.09" length="11.73" shape="5811.27,5142.20 5812.49,5139.33 5812.67,5136.59 5811.81,5133.98 5809.92,5131.51"/>
    </edge>
    <edge id=":20953421_4" function="internal">
        <lane id=":20953421_4_0" index="0" disallow="tram rail_urban rail rail_electric rail_fast ship" speed="6.79" length="11.77" shape="5811.27,5142.20 5813.75,5138.63 5816.04,5136.59 5818.15,5136.09 5820.08,5137.12"/>
    </edge>
    <edge id=":20953772_0" function="internal">
        <lane id=":20953772_0_0" index="0" disallow="tram rail_urban rail rail_electric rail_fast ship" speed="11.11" length="22.40" shape="5601.13,4939.69 5596.48,4935.06 5593.25,4931.64 5589.68,4929.06 5584.05,4926.98"/>
        <lane id=":20953772_0_1" index="1" disallow="tram rail_urban rail rail_electric rail_fast ship" speed="11.11" length="22.40" shape="5603.27,4937.31 5598.19,4932.37 5594.53,4928.72 5590.64,4926.01 5584.89,4923.89"/>
    </edge>
    <edge id=":20953772_2" function="internal">
        <lane id=":20953772_2_0" index="0" disallow="tram rail_urban rail rail_electric rail_fast ship" speed="12.50" length="23.72" shape="5605.42,4934.93 5600.61,4929.75 5598.23,4925.18 5596.93,4920.27 5595.40,4914.04"/>
        <lane id=":20953772_2_1" index="1" disallow="tram rail_urban rail rail_electric rail_fast ship" speed="12.50" length="21.95" shape="5607.56,4932.56 5603.17,4927.85 5601.08,4923.76 5599.95,4919.22 5598.48,4913.15"/>
    </edge>
    <edge id=":20953772_4" function="internal">
        <lane id=":20953772_4_0" index="0" disallow="tram rail_urban rail rail_electric rail_fast ship" speed="12.50" length="19.31" shape="5604.62,4911.36 5605.87,4916.72 5606.67,4920.56 5608.25,4923.91 5611.84,4927.80"/>
        <lane id=":20953772_4_1" index="1" disallow="tram rail_urban rail rail_electric rail_fast ship" speed="12.50" length="19.31" shape="5601.55,4912.26 5602.95,4918.12 5603.91,4922.29 5605.72,4925.93 5609.70,4930.18"/>
    </edge>
    <edge id=":20953772_6" function="internal">
        <lane id=":20953772_6_0" index="0" disallow="tram rail_urban rail rail_electric rail_fast ship" speed="9.03" length="26.02" shape="5601.55,4912.26 5601.81,4919.06 5598.49,4923.24 5592.53,4924.84 5584.89,4923.89"/>
    </edge>
    <edge id=":20953772_7" function="internal">
        <lane id=":20953772_7_0" index="0" disallow="tram rail_urban rail rail_electric rail_fast ship" speed="6.43" length="12.46" shape="5586.56,4917.71 5591.14,4918.57 5594.15,4918.24 5595.57,4916.73 5595.40,4914.04"/>
    </edge>
    <edge id=":20953772_8" function="internal">
        <lane id=":20953772_8_0" index="0" disallow="tram rail_urban rail rail_electric rail_fast ship" speed="11.11" length="26.79" shape="5586.56,4917.71 5593.53,4919.44 5600.03,4921.22 5606.11,4923.77 5611.84,4927.80"/>
        <lane id=":20953772_8_1" index="1" disallow="tram rail_urban rail rail_electric rail_fast ship" speed="11.11" length="26.79" shape="5585.72,4920.80 5592.50,4922.42 5598.54,4923.96 5604.17,4926.26 5609.70,4930.18"/>
    </edge>
    <edge id=":20953780_0" function="internal">
        <lane id=":20953780_0_0" index="0" disallow="tram rail_urban rail rail_electric rail_fast ship" speed="11.11" length="21.48" shape="4828.84,4879.65 4822.43,4877.27 4817.36,4874.57 4813.21,4872.08 4809.54,4870.34"/>
    </edge>
    <edge id=":20953780_1" function="internal">
        <lane id=":20953780_1_0" index="0" disallow="tram rail_urban rail rail_electric rail_fast ship" speed="10.30" length="25.01" shape="4828.84,4879.65 4822.54,4876.85 4818.74,4872.73 4817.45,4867.27 4818.66,4860.48"/>
        <lane id=":20953780_1_1" index="1" disallow="tram rail_urban rail rail_electric rail_fast ship" speed="9.19" length="19.68" shape="4829.71,4876.58 4824.75,4874.37 4821.76,4871.12 4820.75,4866.82 4821.70,4861.48"/>
        <lane id=":20953780_1_2" index="2" disallow="tram rail_urban rail rail_electric rail_fast ship" speed="8.60" length="17.09" shape="4829.71,4876.58 4826.10,4874.76 4824.07,4871.81 4823.61,4867.72 4824.74,4862.49"/>
    </edge>
    <edge id=":20953780_4" function="internal">
        <lane id=":20953780_4_0" index="0" disallow="tram rail_urban rail rail_electric rail_fast ship" speed="6.42" length="9.04" shape="4827.77,4863.49 4827.34,4865.94 4827.81,4867.91 4829.18,4869.41 4831.45,4870.42"/>
    </edge>
    <edge id=":20953780_5" function="internal">
        <lane id=":20953780_5_0" index="0" disallow="tram rail_urban rail rail_electric rail_fast ship" speed="9.87" length="22.13" shape="4827.77,4863.49 4825.20,4868.27 4821.30,4871.00 4816.08,4871.70 4809.54,4870.34"/>
    </edge>