<?xml version="1.0" encoding="UTF-8"?>

<!-- generated on 2021-08-01 15:00:21 by Eclipse SUMO netedit Version 1.9.2
<configuration xmlns:xsi="http://www.w3.org/2001/XMLSchema-instance" xsi:noNamespaceSchemaLocation="http://sumo.dlr.de/xsd/netconvertConfiguration.xsd">

    <input>
        <sumo-net-file value="/home/fazel/Adaptive_Routing_W_Q_Learning_main/environments/sumo/networks/toronto/toronto.net.xml"/>
    </input>

    <output>
        <output-file value="/home/fazel/Adaptive_Routing_W_Q_Learning_main/environments/sumo/networks/toronto/trashtoronto.net.xml"/>
        <output.street-names value="true"/>
    </output>

    <processing>
        <geometry.min-radius.fix.railways value="false"/>
        <geometry.max-grade.fix value="false"/>
        <offset.disable-normalization value="true"/>
        <lefthand value="false"/>
    </processing>

    <junctions>
        <no-turnarounds value="true"/>
        <junctions.corner-detail value="5"/>
        <junctions.limit-turn-speed value="5.5"/>
        <rectangular-lane-cut value="false"/>
    </junctions>

    <pedestrian>
        <walkingareas value="false"/>
    </pedestrian>

    <report>
        <aggregate-warnings value="5"/>
    </report>

</configuration>
-->

<net version="1.9" junctionCornerDetail="5" limitTurnSpeed="5.50" xmlns:xsi="http://www.w3.org/2001/XMLSchema-instance" xsi:noNamespaceSchemaLocation="http://sumo.dlr.de/xsd/net_file.xsd">

    <location netOffset="0.00,0.00" convBoundary="2364.85,1168.98,7743.44,6247.67" origBoundary="-10000000000.00,-10000000000.00,10000000000.00,10000000000.00" projParameter="!"/>

    <type id="highway.bridleway" priority="1" numLanes="1" speed="2.78" allow="pedestrian" oneway="1" width="2.00"/>
    <type id="highway.bus_guideway" priority="1" numLanes="1" speed="27.78" allow="bus" oneway="1"/>
    <type id="highway.cycleway" priority="1" numLanes="1" speed="8.33" allow="bicycle" oneway="1" width="1.00"/>
    <type id="highway.footway" priority="1" numLanes="1" speed="2.78" allow="pedestrian" oneway="1" width="2.00"/>
    <type id="highway.ford" priority="1" numLanes="1" speed="2.78" allow="army" oneway="1"/>
    <type id="highway.living_street" priority="2" numLanes="1" speed="2.78" disallow="tram rail_urban rail rail_electric rail_fast ship" oneway="1"/>
    <type id="highway.motorway" priority="14" numLanes="2" speed="39.44" allow="private emergency authority army vip passenger hov taxi bus coach delivery truck trailer motorcycle evehicle custom1 custom2" oneway="1"/>
    <type id="highway.motorway_link" priority="9" numLanes="1" speed="22.22" allow="private emergency authority army vip passenger hov taxi bus coach delivery truck trailer motorcycle evehicle custom1 custom2" oneway="1"/>
    <type id="highway.path" priority="1" numLanes="1" speed="2.78" allow="pedestrian bicycle" oneway="1" width="2.00"/>
    <type id="highway.pedestrian" priority="1" numLanes="1" speed="2.78" allow="pedestrian" oneway="1" width="2.00"/>
    <type id="highway.primary" priority="12" numLanes="2" speed="27.78" disallow="tram rail_urban rail rail_electric rail_fast ship" oneway="1"/>
    <type id="highway.primary_link" priority="7" numLanes="1" speed="22.22" disallow="tram rail_urban rail rail_electric rail_fast ship" oneway="1"/>
    <type id="highway.raceway" priority="15" numLanes="2" speed="83.33" allow="vip" oneway="1"/>
    <type id="highway.residential" priority="3" numLanes="1" speed="13.89" disallow="tram rail_urban rail rail_electric rail_fast ship" oneway="1"/>
    <type id="highway.secondary" priority="11" numLanes="1" speed="27.78" disallow="tram rail_urban rail rail_electric rail_fast ship" oneway="1"/>
    <type id="highway.secondary_link" priority="6" numLanes="1" speed="22.22" disallow="tram rail_urban rail rail_electric rail_fast ship" oneway="1"/>
    <type id="highway.service" priority="1" numLanes="1" speed="5.56" allow="pedestrian delivery bicycle" oneway="1"/>
    <type id="highway.stairs" priority="1" numLanes="1" speed="1.39" allow="pedestrian" oneway="1" width="2.00"/>
    <type id="highway.step" priority="1" numLanes="1" speed="1.39" allow="pedestrian" oneway="1" width="2.00"/>
    <type id="highway.steps" priority="1" numLanes="1" speed="1.39" allow="pedestrian" oneway="1" width="2.00"/>
    <type id="highway.tertiary" priority="10" numLanes="1" speed="22.22" disallow="tram rail_urban rail rail_electric rail_fast ship" oneway="1"/>
    <type id="highway.tertiary_link" priority="5" numLanes="1" speed="22.22" disallow="tram rail_urban rail rail_electric rail_fast ship" oneway="1"/>
    <type id="highway.track" priority="1" numLanes="1" speed="5.56" allow="pedestrian motorcycle moped bicycle" oneway="1"/>
    <type id="highway.trunk" priority="13" numLanes="2" speed="27.78" disallow="pedestrian bicycle tram rail_urban rail rail_electric rail_fast ship" oneway="1"/>
    <type id="highway.trunk_link" priority="8" numLanes="1" speed="22.22" disallow="pedestrian bicycle tram rail_urban rail rail_electric rail_fast ship" oneway="1"/>
    <type id="highway.unclassified" priority="4" numLanes="1" speed="13.89" disallow="tram rail_urban rail rail_electric rail_fast ship" oneway="1"/>
    <type id="highway.unsurfaced" priority="1" numLanes="1" speed="8.33" disallow="tram rail_urban rail rail_electric rail_fast ship" oneway="1"/>
    <type id="railway.highspeed" priority="21" numLanes="1" speed="69.44" allow="rail_fast" oneway="1"/>
    <type id="railway.light_rail" priority="19" numLanes="1" speed="27.78" allow="rail_urban" oneway="1"/>
    <type id="railway.preserved" priority="16" numLanes="1" speed="27.78" allow="rail" oneway="1"/>
    <type id="railway.rail" priority="20" numLanes="1" speed="44.44" allow="rail" oneway="1"/>
    <type id="railway.subway" priority="18" numLanes="1" speed="27.78" allow="rail_urban" oneway="1"/>
    <type id="railway.tram" priority="17" numLanes="1" speed="13.89" allow="tram" oneway="1"/>

    <edge id=":1102845227_0" function="internal">
        <lane id=":1102845227_0_0" index="0" disallow="tram rail_urban rail rail_electric rail_fast ship" speed="11.11" length="0.33" shape="6002.73,3620.60 6002.63,3620.93"/>
        <lane id=":1102845227_0_1" index="1" disallow="tram rail_urban rail rail_electric rail_fast ship" speed="11.11" length="0.33" shape="5999.67,3619.66 5999.58,3619.96"/>
    </edge>
    <edge id=":1102845227_2" function="internal">
        <lane id=":1102845227_2_0" index="0" disallow="tram rail_urban rail rail_electric rail_fast ship" speed="11.11" length="0.26" shape="5993.48,3618.01 5993.56,3617.78"/>
        <lane id=":1102845227_2_1" index="1" disallow="tram rail_urban rail rail_electric rail_fast ship" speed="11.11" length="0.26" shape="5996.53,3618.99 5996.61,3618.72"/>
    </edge>
    <edge id=":1335223553_0" function="internal">
        <lane id=":1335223553_0_0" index="0" allow="private emergency authority army vip passenger hov taxi bus coach delivery truck trailer motorcycle evehicle custom1 custom2" speed="25.00" length="8.15" shape="6459.37,5079.74 6458.54,5082.05 6458.71,5083.90 6458.91,5085.76 6458.14,5088.11"/>
        <lane id=":1335223553_0_1" index="1" allow="private emergency authority army vip passenger hov taxi bus coach delivery truck trailer motorcycle evehicle custom1 custom2" speed="25.00" length="8.15" shape="6459.37,5079.74 6455.36,5086.53"/>
        <lane id=":1335223553_0_2" index="2" allow="private emergency authority army vip passenger hov taxi bus coach delivery truck trailer motorcycle evehicle custom1 custom2" speed="25.00" length="8.15" shape="6456.63,5078.07 6452.58,5084.95"/>
        <lane id=":1335223553_0_3" index="3" allow="private emergency authority army vip passenger hov taxi bus coach delivery truck trailer motorcycle evehicle custom1 custom2" speed="25.00" length="8.15" shape="6453.90,5076.41 6449.80,5083.36"/>
    </edge>
    <edge id=":1363831225_0" function="internal">
        <lane id=":1363831225_0_0" index="0" allow="private emergency authority army vip passenger hov taxi bus coach delivery truck trailer motorcycle evehicle custom1 custom2" speed="6.47" length="9.03" shape="5264.73,1890.53 5262.30,1890.02 5260.30,1890.41 5258.74,1891.70 5257.60,1893.91"/>
        <lane id=":1363831225_0_1" index="1" allow="private emergency authority army vip passenger hov taxi bus coach delivery truck trailer motorcycle evehicle custom1 custom2" speed="7.29" length="11.76" shape="5264.73,1890.53 5260.99,1889.54 5258.05,1889.59 5255.91,1890.70 5254.57,1892.85"/>
        <lane id=":1363831225_0_2" index="2" allow="private emergency authority army vip passenger hov taxi bus coach delivery truck trailer motorcycle evehicle custom1 custom2" speed="8.64" length="16.94" shape="5265.83,1887.53 5260.68,1886.23 5256.59,1886.52 5253.55,1888.37 5251.55,1891.80"/>
    </edge>
    <edge id=":1403960984_0" function="internal">
        <lane id=":1403960984_0_0" index="0" disallow="tram rail_urban rail rail_electric rail_fast ship" speed="11.11" length="1.62" shape="3060.51,3984.41 3062.13,3984.58"/>
        <lane id=":1403960984_0_1" index="1" disallow="tram rail_urban rail rail_electric rail_fast ship" speed="11.11" length="1.62" shape="3063.57,3985.35 3065.19,3985.53"/>
        <lane id=":1403960984_0_2" index="2" disallow="tram rail_urban rail rail_electric rail_fast ship" speed="11.11" length="1.62" shape="3066.63,3986.29 3068.24,3986.48"/>
    </edge>
    <edge id=":1470543871_0" function="internal">
        <lane id=":1470543871_0_0" index="0" disallow="tram rail_urban rail rail_electric rail_fast ship" speed="13.89" length="8.21" shape="6327.65,2983.42 6329.57,2984.86 6331.12,2985.54 6332.67,2986.22 6334.62,2987.64"/>
        <lane id=":1470543871_0_1" index="1" disallow="tram rail_urban rail rail_electric rail_fast ship" speed="13.89" length="8.21" shape="6325.47,2985.76 6327.40,2987.22 6328.96,2987.90 6330.52,2988.58 6332.47,2990.01"/>
    </edge>
    <edge id=":1553144380_0" function="internal">
        <lane id=":1553144380_0_0" index="0" allow="private emergency authority army vip passenger hov taxi bus coach delivery truck trailer motorcycle evehicle custom1 custom2" speed="25.00" length="0.29" shape="4953.64,1602.97 4953.82,1603.11"/>
        <lane id=":1553144380_0_1" index="1" allow="private emergency authority army vip passenger hov taxi bus coach delivery truck trailer motorcycle evehicle custom1 custom2" speed="25.00" length="0.29" shape="4951.70,1605.51 4951.93,1605.68"/>
        <lane id=":1553144380_0_2" index="2" allow="private emergency authority army vip passenger hov taxi bus coach delivery truck trailer motorcycle evehicle custom1 custom2" speed="25.00" length="0.29" shape="4949.76,1608.06 4950.03,1608.26"/>
    </edge>
    <edge id=":1625424073_0" function="internal">
        <lane id=":1625424073_0_0" index="0" disallow="tram rail_urban rail rail_electric rail_fast ship" speed="11.11" length="0.28" shape="3514.02,1534.99 3513.77,1534.89"/>
        <lane id=":1625424073_0_1" index="1" disallow="tram rail_urban rail rail_electric rail_fast ship" speed="11.11" length="0.28" shape="3515.20,1532.01 3514.93,1531.91"/>
    </edge>
    <edge id=":1625424073_2" function="internal">
        <lane id=":1625424073_2_0" index="0" disallow="tram rail_urban rail rail_electric rail_fast ship" speed="11.11" length="0.32" shape="3517.25,1525.94 3517.56,1526.06"/>
        <lane id=":1625424073_2_1" index="1" disallow="tram rail_urban rail rail_electric rail_fast ship" speed="11.11" length="0.32" shape="3516.09,1528.92 3516.38,1529.04"/>
    </edge>
    <edge id=":184514742_0" function="internal">
        <lane id=":184514742_0_0" index="0" allow="private emergency authority army vip passenger hov taxi bus coach delivery truck trailer motorcycle evehicle custom1 custom2" speed="25.00" length="7.98" shape="6818.49,4226.96 6816.62,4234.76"/>
        <lane id=":184514742_0_1" index="1" allow="private emergency authority army vip passenger hov taxi bus coach delivery truck trailer motorcycle evehicle custom1 custom2" speed="25.00" length="7.98" shape="6815.38,4226.23 6813.51,4233.99"/>
        <lane id=":184514742_0_2" index="2" allow="private emergency authority army vip passenger hov taxi bus coach delivery truck trailer motorcycle evehicle custom1 custom2" speed="25.00" length="7.98" shape="6812.26,4225.51 6810.40,4233.22"/>
    </edge>
    <edge id=":19881833-AddedOffRampNode_0" function="internal">
        <lane id=":19881833-AddedOffRampNode_0_0" index="0" allow="private emergency authority army vip passenger hov taxi bus coach delivery truck trailer motorcycle evehicle custom1 custom2" speed="22.01" length="1.39" shape="4247.77,1297.74 4247.08,1297.76 4246.61,1297.74 4246.15,1297.66 4245.48,1297.49"/>
        <lane id=":19881833-AddedOffRampNode_0_1" index="1" allow="private emergency authority army vip passenger hov taxi bus coach delivery truck trailer motorcycle evehicle custom1 custom2" speed="17.10" length="1.39" shape="4247.66,1294.55 4247.25,1294.56 4246.96,1294.54 4246.68,1294.49 4246.29,1294.39"/>
        <lane id=":19881833-AddedOffRampNode_0_2" index="2" allow="private emergency authority army vip passenger hov taxi bus coach delivery truck trailer motorcycle evehicle custom1 custom2" speed="25.00" length="1.39" shape="4247.55,1291.35 4247.41,1291.35 4247.32,1291.35 4247.22,1291.33 4247.09,1291.30"/>
    </edge>
    <edge id=":2056766505_0" function="internal">
        <lane id=":2056766505_0_0" index="0" allow="private emergency authority army vip passenger hov taxi bus coach delivery truck trailer motorcycle evehicle custom1 custom2" speed="25.00" length="8.12" shape="6269.16,6048.82 6269.92,6051.14 6271.19,6052.48 6272.48,6053.81 6273.33,6056.12"/>
        <lane id=":2056766505_0_1" index="1" allow="private emergency authority army vip passenger hov taxi bus coach delivery truck trailer motorcycle evehicle custom1 custom2" speed="25.00" length="8.12" shape="6269.16,6048.82 6270.16,6056.59"/>
        <lane id=":2056766505_0_2" index="2" allow="private emergency authority army vip passenger hov taxi bus coach delivery truck trailer motorcycle evehicle custom1 custom2" speed="25.00" length="8.12" shape="6265.98,6049.17 6267.00,6057.06"/>
        <lane id=":2056766505_0_3" index="3" allow="private emergency authority army vip passenger hov taxi bus coach delivery truck trailer motorcycle evehicle custom1 custom2" speed="25.00" length="8.12" shape="6262.80,6049.52 6263.83,6057.53"/>
    </edge>
    <edge id=":2056766536_0" function="internal">
        <lane id=":2056766536_0_0" index="0" allow="private emergency authority army vip passenger hov taxi bus coach delivery truck trailer motorcycle evehicle custom1 custom2" speed="18.05" length="9.80" shape="6241.58,5951.71 6241.56,5949.44 6241.58,5947.88 6241.69,5946.33 6241.90,5944.07"/>
        <lane id=":2056766536_0_1" index="1" allow="private emergency authority army vip passenger hov taxi bus coach delivery truck trailer motorcycle evehicle custom1 custom2" speed="18.05" length="9.80" shape="6241.58,5951.71 6242.05,5949.42 6243.17,5948.04 6244.36,5946.67 6245.09,5944.39"/>
        <lane id=":2056766536_0_2" index="2" allow="private emergency authority army vip passenger hov taxi bus coach delivery truck trailer motorcycle evehicle custom1 custom2" speed="18.05" length="9.80" shape="6241.58,5951.71 6242.54,5949.25 6244.73,5948.20 6247.01,5947.16 6248.27,5944.71"/>
        <lane id=":2056766536_0_3" index="3" allow="private emergency authority army vip passenger hov taxi bus coach delivery truck trailer motorcycle evehicle custom1 custom2" speed="18.05" length="9.80" shape="6241.58,5951.71 6243.02,5949.39 6246.28,5948.72 6249.65,5947.87 6251.46,5945.03"/>
    </edge>
    <edge id=":2057182524_0" function="internal">
        <lane id=":2057182524_0_0" index="0" disallow="pedestrian bicycle tram rail_urban rail rail_electric rail_fast ship" speed="25.00" length="8.03" shape="5886.07,5757.62 5879.74,5752.61"/>
        <lane id=":2057182524_0_1" index="1" disallow="pedestrian bicycle tram rail_urban rail rail_electric rail_fast ship" speed="25.00" length="8.03" shape="5888.02,5755.08 5881.77,5750.13"/>
    </edge>
    <edge id=":2057182524_2" function="internal">
        <lane id=":2057182524_2_0" index="0" disallow="pedestrian bicycle tram rail_urban rail rail_electric rail_fast ship" speed="25.00" length="8.27" shape="5883.79,5747.65 5885.97,5748.78 5887.83,5748.86 5889.69,5748.92 5891.92,5750.00"/>
        <lane id=":2057182524_2_1" index="1" disallow="pedestrian bicycle tram rail_urban rail rail_electric rail_fast ship" speed="25.00" length="8.27" shape="5883.79,5747.65 5889.97,5752.54"/>
    </edge>
    <edge id=":2057182564_0" function="internal">
        <lane id=":2057182564_0_0" index="0" disallow="tram rail_urban rail rail_electric rail_fast ship" speed="6.75" length="5.87" shape="5821.78,5659.49 5820.82,5660.68 5820.26,5661.97 5820.08,5663.37 5820.29,5664.88"/>
    </edge>
    <edge id=":2057182564_1" function="internal">
        <lane id=":2057182564_1_0" index="0" disallow="pedestrian bicycle tram rail_urban rail rail_electric rail_fast ship" speed="18.05" length="6.15" shape="5814.01,5658.20 5812.78,5650.38"/>
        <lane id=":2057182564_1_1" index="1" disallow="pedestrian bicycle tram rail_urban rail rail_electric rail_fast ship" speed="18.05" length="6.15" shape="5814.01,5658.20 5814.73,5656.77 5814.52,5655.43 5814.31,5654.08 5815.03,5652.66"/>
        <lane id=":2057182564_1_2" index="2" disallow="pedestrian bicycle tram rail_urban rail rail_electric rail_fast ship" speed="18.05" length="6.15" shape="5814.01,5658.20 5817.28,5654.94"/>
    </edge>
    <edge id=":2057182576_0" function="internal">
        <lane id=":2057182576_0_0" index="0" disallow="pedestrian bicycle tram rail_urban rail rail_electric rail_fast ship" speed="25.00" length="0.48" shape="5859.63,5736.21 5859.18,5735.81"/>
        <lane id=":2057182576_0_1" index="1" disallow="pedestrian bicycle tram rail_urban rail rail_electric rail_fast ship" speed="25.00" length="0.48" shape="5861.65,5733.73 5861.38,5733.49"/>
    </edge>
    <edge id=":2057182576_2" function="internal">
        <lane id=":2057182576_2_0" index="0" disallow="pedestrian bicycle tram rail_urban rail rail_electric rail_fast ship" speed="25.00" length="0.12" shape="5863.59,5731.17 5863.68,5731.25"/>
    </edge>
    <edge id=":2057182598_0" function="internal">
        <lane id=":2057182598_0_0" index="0" disallow="tram rail_urban rail rail_electric rail_fast ship" speed="10.16" length="7.42" shape="5867.10,5246.86 5865.60,5245.64 5864.34,5245.14 5862.91,5244.98 5860.91,5244.79"/>
        <lane id=":2057182598_0_1" index="1" disallow="tram rail_urban rail rail_electric rail_fast ship" speed="11.09" length="7.42" shape="5867.10,5246.86 5865.57,5244.97 5864.63,5243.42 5863.48,5242.28 5861.34,5241.62"/>
    </edge>
    <edge id=":2057182598_2" function="internal">
        <lane id=":2057182598_2_0" index="0" disallow="tram rail_urban rail rail_electric rail_fast ship" speed="13.89" length="8.71" shape="5863.72,5238.02 5864.99,5240.25 5866.11,5241.61 5867.43,5242.82 5869.34,5244.58"/>
    </edge>
    <edge id=":2057182690_0" function="internal">
        <lane id=":2057182690_0_0" index="0" disallow="pedestrian bicycle tram rail_urban rail rail_electric rail_fast ship" speed="25.00" length="34.64" shape="5826.16,5704.84 5800.92,5681.11"/>
        <lane id=":2057182690_0_1" index="1" disallow="pedestrian bicycle tram rail_urban rail rail_electric rail_fast ship" speed="25.00" length="34.64" shape="5828.35,5702.51 5803.12,5678.78"/>
    </edge>
    <edge id=":2057182690_2" function="internal">
        <lane id=":2057182690_2_0" index="0" disallow="pedestrian bicycle tram rail_urban rail rail_electric rail_fast ship" speed="13.67" length="9.92" shape="5827.13,5691.15 5827.68,5694.07 5827.98,5696.17 5828.70,5698.03 5830.55,5700.18"/>
    </edge>
    <edge id=":2057182690_3" function="internal">
        <lane id=":2057182690_3_0" index="0" disallow="pedestrian bicycle tram rail_urban rail rail_electric rail_fast ship" speed="25.00" length="34.60" shape="5807.17,5674.67 5830.55,5700.18"/>
    </edge>
    <edge id=":2057182690_4" function="internal">
        <lane id=":2057182690_4_0" index="0" disallow="pedestrian bicycle tram rail_urban rail rail_electric rail_fast ship" speed="25.00" length="34.65" shape="5804.77,5677.02 5830.55,5700.18"/>
    </edge>
    <edge id=":2057191494_0" function="internal">
        <lane id=":2057191494_0_0" index="0" disallow="tram rail_urban rail rail_electric rail_fast ship" speed="13.89" length="0.65" shape="5869.59,5214.49 5869.40,5214.55 5869.28,5214.60 5869.17,5214.67 5869.01,5214.78"/>
    </edge>
    <edge id=":20762091_0" function="internal">
        <lane id=":20762091_0_0" index="0" allow="private emergency authority army vip passenger hov taxi bus coach delivery truck trailer motorcycle evehicle custom1 custom2" speed="25.00" length="3.21" shape="7270.28,2486.15 7271.52,2483.18"/>
        <lane id=":20762091_0_1" index="1" allow="private emergency authority army vip passenger hov taxi bus coach delivery truck trailer motorcycle evehicle custom1 custom2" speed="25.00" length="3.21" shape="7271.83,2483.35 7273.12,2480.41"/>
        <lane id=":20762091_0_2" index="2" allow="private emergency authority army vip passenger hov taxi bus coach delivery truck trailer motorcycle evehicle custom1 custom2" speed="25.00" length="3.21" shape="7273.38,2480.55 7274.73,2477.64"/>
        <lane id=":20762091_0_3" index="3" allow="private emergency authority army vip passenger hov taxi bus coach delivery truck trailer motorcycle evehicle custom1 custom2" speed="25.00" length="3.21" shape="7274.93,2477.75 7276.33,2474.87"/>
    </edge>
    <edge id=":208533377_0" function="internal">
        <lane id=":208533377_0_0" index="0" allow="private emergency authority army vip passenger hov taxi bus coach delivery truck trailer motorcycle evehicle custom1 custom2" speed="25.00" length="0.86" shape="4312.75,1308.82 4312.47,1308.75 4312.29,1308.68 4312.10,1308.60 4311.83,1308.52"/>
        <lane id=":208533377_0_1" index="1" allow="private emergency authority army vip passenger hov taxi bus coach delivery truck trailer motorcycle evehicle custom1 custom2" speed="25.00" length="0.86" shape="4313.40,1305.69 4313.15,1305.62 4312.99,1305.56 4312.83,1305.48 4312.59,1305.41"/>
        <lane id=":208533377_0_2" index="2" allow="private emergency authority army vip passenger hov taxi bus coach delivery truck trailer motorcycle evehicle custom1 custom2" speed="25.00" length="0.86" shape="4314.05,1302.56 4313.84,1302.50 4313.70,1302.43 4313.56,1302.37 4313.35,1302.30"/>
    </edge>
    <edge id=":208539693_0" function="internal">
        <lane id=":208539693_0_0" index="0" allow="private emergency authority army vip passenger hov taxi bus coach delivery truck trailer motorcycle evehicle custom1 custom2" speed="25.00" length="8.11" shape="5509.01,1939.72 5511.55,1939.88 5513.36,1939.25 5515.16,1938.65 5517.66,1938.92"/>
        <lane id=":208539693_0_1" index="1" allow="private emergency authority army vip passenger hov taxi bus coach delivery truck trailer motorcycle evehicle custom1 custom2" speed="25.00" length="8.11" shape="5509.01,1939.72 5516.69,1941.97"/>
        <lane id=":208539693_0_2" index="2" allow="private emergency authority army vip passenger hov taxi bus coach delivery truck trailer motorcycle evehicle custom1 custom2" speed="25.00" length="8.11" shape="5508.18,1942.81 5515.73,1945.02"/>
        <lane id=":208539693_0_3" index="3" allow="private emergency authority army vip passenger hov taxi bus coach delivery truck trailer motorcycle evehicle custom1 custom2" speed="25.00" length="8.11" shape="5507.35,1945.90 5514.76,1948.07"/>
    </edge>
    <edge id=":20953421_0" function="internal">
        <lane id=":20953421_0_0" index="0" disallow="tram rail_urban rail rail_electric rail_fast ship" speed="11.11" length="11.66" shape="5814.30,5126.96 5817.08,5128.99 5819.44,5129.77 5821.80,5130.54 5824.58,5132.57"/>
        <lane id=":20953421_0_1" index="1" disallow="tram rail_urban rail rail_electric rail_fast ship" speed="11.11" length="11.66" shape="5812.06,5129.24 5814.84,5131.28 5817.20,5132.05 5819.56,5132.83 5822.34,5134.86"/>
        <lane id=":20953421_0_2" index="2" disallow="tram rail_urban rail rail_electric rail_fast ship" speed="11.11" length="11.66" shape="5812.06,5129.24 5820.10,5137.14"/>
    </edge>
    <edge id=":20953421_3" function="internal">
        <lane id=":20953421_3_0" index="0" disallow="tram rail_urban rail rail_electric rail_fast ship" speed="6.57" length="7.52" shape="5808.47,5140.66 5809.25,5138.81 5809.36,5137.06 5808.80,5135.39 5807.57,5133.81"/>
        <lane id=":20953421_3_1" index="1" disallow="tram rail_urban rail rail_electric rail_fast ship" speed="8.08" length="11.82" shape="5811.22,5142.29 5812.45,5139.39 5812.62,5136.63 5811.75,5134.01 5809.81,5131.53"/>
    </edge>
    <edge id=":20953772_0" function="internal">
        <lane id=":20953772_0_0" index="0" disallow="tram rail_urban rail rail_electric rail_fast ship" speed="11.11" length="18.51" shape="5604.99,4934.87 5600.87,4931.47 5597.45,4929.99 5593.60,4929.26 5588.20,4928.10"/>
    </edge>
    <edge id=":20953772_1" function="internal">
        <lane id=":20953772_1_0" index="0" disallow="tram rail_urban rail rail_electric rail_fast ship" speed="12.50" length="23.32" shape="5604.99,4934.87 5600.87,4930.01 5598.57,4925.43 5597.07,4920.36 5595.40,4914.04"/>
    </edge>
    <edge id=":20953772_2" function="internal">
        <lane id=":20953772_2_0" index="0" disallow="tram rail_urban rail rail_electric rail_fast ship" speed="11.11" length="6.79" shape="5607.23,4932.59 5602.76,4928.85 5601.88,4928.45"/>
    </edge>
    <edge id=":20953772_3" function="internal">
        <lane id=":20953772_3_0" index="0" disallow="tram rail_urban rail rail_electric rail_fast ship" speed="12.50" length="21.74" shape="5607.23,4932.59 5603.24,4927.95 5601.22,4923.84 5600.02,4919.25 5598.48,4913.15"/>
    </edge>
    <edge id=":20953772_12" function="internal">
        <lane id=":20953772_12_0" index="0" disallow="tram rail_urban rail rail_electric rail_fast ship" speed="11.11" length="13.35" shape="5601.88,4928.45 5599.06,4927.17 5594.90,4926.31 5589.04,4925.01"/>
    </edge>
    <edge id=":20953772_4" function="internal">
        <lane id=":20953772_4_0" index="0" disallow="tram rail_urban rail rail_electric rail_fast ship" speed="12.50" length="18.51" shape="5604.62,4911.36 5605.89,4916.74 5606.69,4920.58 5608.24,4923.97 5611.71,4928.02"/>
    </edge>
    <edge id=":20953772_5" function="internal">
        <lane id=":20953772_5_0" index="0" disallow="tram rail_urban rail rail_electric rail_fast ship" speed="9.67" length="30.03" shape="5604.62,4911.36 5605.36,4919.73 5602.49,4925.69 5596.58,4928.67 5588.20,4928.10"/>
    </edge>
    <edge id=":20953772_6" function="internal">
        <lane id=":20953772_6_0" index="0" disallow="tram rail_urban rail rail_electric rail_fast ship" speed="12.50" length="20.15" shape="5601.55,4912.26 5602.96,4918.10 5603.90,4922.24 5605.65,4925.90 5609.47,4930.31"/>
    </edge>
    <edge id=":20953772_7" function="internal">
        <lane id=":20953772_7_0" index="0" disallow="tram rail_urban rail rail_electric rail_fast ship" speed="8.81" length="24.67" shape="5601.55,4912.26 5602.67,4919.62 5600.96,4924.19 5596.42,4925.99 5589.04,4925.01"/>
    </edge>
    <edge id=":20953772_8" function="internal">
        <lane id=":20953772_8_0" index="0" disallow="tram rail_urban rail rail_electric rail_fast ship" speed="5.65" length="9.26" shape="5590.70,4918.83 5593.48,4919.20 5595.18,4918.52 5595.83,4916.80 5595.40,4914.04"/>
    </edge>
    <edge id=":20953772_9" function="internal">
        <lane id=":20953772_9_0" index="0" disallow="tram rail_urban rail rail_electric rail_fast ship" speed="11.11" length="23.32" shape="5590.70,4918.83 5597.06,4920.38 5602.15,4921.78 5606.78,4924.00 5611.71,4928.02"/>
    </edge>
    <edge id=":20953772_10" function="internal">
        <lane id=":20953772_10_0" index="0" disallow="tram rail_urban rail rail_electric rail_fast ship" speed="7.40" length="6.94" shape="5589.87,4921.92 5594.95,4922.60 5596.64,4921.93"/>
    </edge>
    <edge id=":20953772_11" function="internal">
        <lane id=":20953772_11_0" index="0" disallow="tram rail_urban rail rail_electric rail_fast ship" speed="11.11" length="21.74" shape="5589.87,4921.92 5596.00,4923.34 5600.62,4924.46 5604.76,4926.41 5609.47,4930.31"/>
    </edge>
    <edge id=":20953772_13" function="internal">
        <lane id=":20953772_13_0" index="0" disallow="tram rail_urban rail rail_electric rail_fast ship" speed="7.40" length="10.02" shape="5596.64,4921.93 5598.07,4921.36 5599.25,4918.21 5598.48,4913.15"/>
    </edge>
    <edge id=":20953780_0" function="internal">
        <lane id=":20953780_0_0" index="0" disallow="tram rail_urban rail rail_electric rail_fast ship" speed="11.11" length="24.60" shape="4831.88,4880.52 4825.00,4878.00 4818.88,4874.99 4813.67,4872.21 4809.53,4870.34"/>
    </edge>
    <edge id=":20953780_1" function="internal">
        <lane id=":20953780_1_0" index="0" disallow="tram rail_urban rail rail_electric rail_fast ship" speed="10.31" length="13.79" shape="4831.88,4880.52 4825.61,4877.73 4821.81,4873.61 4821.50,4872.32"/>
        <lane id=":20953780_1_1" index="1" disallow="tram rail_urban rail rail_electric rail_fast ship" speed="9.20" length="7.28" shape="4832.76,4877.44 4827.81,4875.24 4826.55,4873.87"/>
    </edge>
    <edge id=":20953780_7" function="internal">
        <lane id=":20953780_7_0" index="0" disallow="tram rail_urban rail rail_electric rail_fast ship" speed="10.31" length="11.15" shape="4821.50,4872.32 4820.49,4868.17 4821.66,4861.40"/>
    </edge>
    <edge id=":20953780_8" function="internal">