<trips><trip origin="-gneE2" destination="gneE47" /><trip origin="-gneE19" destination="-gneE25" /><trip origin="-gneE30" destination="-gneE48" /><trip origin="gneE54" destination="-gneE33" /><trip origin="-gneE46" destination="gneE15" /><trip origin="gneE55" destination="gneE15" /><trip origin="-gneE46" destination="-gneE35" /><trip origin="gneE54" destination="-gneE45" /><trip origin="-gneE18" destination="-gneE16" /><trip origin="gneE47" destination="gneE52" /><trip origin="gneE32" destination="-gneE52" /><trip origin="gneE33" destination="gneE46" /><trip origin="-gneE19" destination="-gneE25" /><trip origin="-gneE16" destination="-gneE46" /><trip origin="-gneE29" destination="-gneE6" /><trip origin="-gneE18" destination="gneE31" /><trip origin="gneE47" destination="gneE33" /><trip origin="-gneE15" destination="gneE26" /><trip origin="-gneE27" destination="gneE34" /><trip origin="gneE53" destination="-gneE41" /><trip origin="gneE42" destination="-gneE44" /><trip origin="-gneE50" destination="gneE29" /><trip origin="gneE31" destination="-gneE30" /><trip origin="-gneE19" destination="-gneE25" /><trip origin="-gneE35" destination="gneE16" /><trip origin="gneE39" destination="gneE6" /><trip origin="gneE37" destination="-gneE26" /><trip origin="-gneE53" destination="gneE44" /><trip origin="-gneE51" destination="gneE36" /><trip origin="-gneE18" destination="gneE28" /><trip origin="-gneE51" destination="-gneE39" /><trip origin="-gneE52" destination="-gneE23" /><trip origin="-gneE51" destination="gneE21" /><trip origin="gneE27" destination="gneE2" /><trip origin="-gneE19" destination="-gneE25" /><trip origin="gneE51" destination="-gneE50" /><trip origin="-gneE37" destination="-gneE16" /><trip origin="gneE2" destination="gneE38" /><trip origin="gneE52" destination="-gneE34" /><trip origin="-gneE48" destination="-gneE8" /><trip origin="gneE30" destination="gneE49" /><trip origin="gneE25" destination="gneE30" /><trip origin="-gneE42" destination="-gneE38" /><trip origin="gneE39" destination="gneE4" /><trip origin="-gneE43" destination="-gneE38" /><trip origin="-gneE19" destination="-gneE25" /><trip origin="gneE35" destination="gneE16" /><trip origin="gneE37" destination="gneE30" /><trip origin="gneE34" destination="-gneE42" /><trip origin="gneE19" destination="gneE4" /><trip origin="gneE5" destination="-gneE43" /><trip origin="-gneE29" destination="-gneE39" /><trip origin="-gneE5" destination="gneE43" /><trip origin="gneE30" destination="gneE41" /><trip origin="-gneE26" destination="-gneE48" /><trip origin="gneE53" destination="-gneE30" /><trip origin="-gneE19" destination="-gneE25" /><trip origin="-gneE46" destination="gneE27" /><trip origin="-gneE39" destination="gneE33" /><trip origin="gneE22" destination="gneE30" /><trip origin="gneE32" destination="-gneE27" /><trip origin="-gneE4" destination="gneE27" /><trip origin="-gneE48" destination="-gneE34" /><trip origin="-gneE29" destination="-gneE38" /><trip origin="gneE34" destination="gneE52" /><trip origin="gneE16" destination="-gneE50" /><trip origin="gneE49" destination="-gneE7" /><trip origin="-gneE19" destination="-gneE25" /><trip origin="gneE19" destination="-gneE27" /><trip origin="-gneE43" destination="gneE45" /><trip origin="gneE40" destination="-gneE53" /><trip origin="-gneE38" destination="-gneE52" /><trip origin="-gneE29" destination="-gneE8" /><trip origin="-gneE44" destination="gneE38" /><trip origin="-gneE22" destination="gneE1" /><trip origin="-gneE4" destination="gneE52" /><trip origin="-gneE5" destination="-gneE48" /><trip origin="gneE46" destination="gneE51" /><trip origin="-gneE19" destination="-gneE25" /><trip origin="gneE1" destination="-gneE34" /><trip origin="gneE39" destination="-gneE35" /><trip origin="-gneE2" destination="gneE28" /><trip origin="-gneE17" destination="-gneE39" /><trip origin="gneE21" destination="gneE21" /><trip origin="gneE51" destination="-gneE25" /><trip origin="gneE32" destination="gneE4" /><trip origin="-gneE30" destination="gneE6" /><trip origin="-gneE48" destination="gneE52" /><trip origin="gneE31" destination="-gneE27" /><trip origin="-gneE19" destination="-gneE25" /><trip origin="gneE54" destination="-gneE39" /><trip origin="gneE22" destination="-gneE30" /><trip origin="gneE35" destination="gneE50" /><trip origin="gneE23" destination="gneE31" /><trip origin="gneE5" destination="gneE30" /><trip origin="gneE17" destination="gneE55" /><trip origin="-gneE32" destination="-gneE47" /><trip origin="gneE38" destination="gneE55" /><trip origin="-gneE55" destination="gneE50" /><trip origin="-gneE21" destination="-gneE27" /><trip origin="-gneE19" destination="-gneE25" /><trip origin="-gneE7" destination="-gneE33" /><trip origin="gneE16" destination="-gneE51" /><trip origin="-gneE44" destination="-gneE43" /><trip origin="gneE52" destination="gneE36" /><trip origin="gneE41" destination="-gneE38" /><trip origin="gneE18" destination="gneE28" /><trip origin="gneE36" destination="-gneE23" /><trip origin="gneE17" destination="gneE28" /><trip origin="gneE31" destination="gneE28" /><trip origin="-gneE4" destination="-gneE3" /><trip origin="-gneE19" destination="-gneE25" /><trip origin="-gneE39" destination="gneE40" /><trip origin="gneE28" destination="gneE49" /><trip origin="-gneE28" destination="-gneE47" /><trip origin="-gneE17" destination="gneE51" /><trip origin="gneE32" destination="-gneE6" /><trip origin="gneE23" destination="gneE2" /><trip origin="gneE23" destination="-gneE17" /><trip origin="-gneE51" destination="gneE15" /><trip origin="-gneE37" destination="-gneE36" /><trip origin="-gneE32" destination="-gneE53" /><trip origin="-gneE19" destination="-gneE25" /><trip origin="gneE16" destination="gneE26" /><trip origin="-gneE47" destination="gneE33" /><trip origin="-gneE42" destination="-gneE53" /><trip origin="-gneE7" destination="gneE25" /><trip origin="gneE25" destination="-gneE50" /><trip origin="-gneE35" destination="gneE21" /><trip origin="gneE42" destination="-gneE18" /><trip origin="gneE25" destination="-gneE22" /><trip origin="gneE7" destination="gneE30" /><trip origin="-gneE6" destination="gneE27" /><trip origin="-gneE19" destination="-gneE25" /><trip origin="gneE31" destination="gneE39" /><trip origin="gneE3" destination="-gneE25" /><trip origin="gneE49" destination="gneE20" /><trip origin="-gneE41" destination="-gneE40" /><trip origin="-gneE17" destination="-gneE46" /><trip origin="-gneE36" destination="gneE29" /><trip origin="-gneE37" destination="gneE7" /><trip origin="-gneE31" destination="-gneE54" /><trip origin="gneE21" destination="gneE36" /><trip origin="-gneE7" destination="-gneE44" /><trip origin="-gneE19" destination="-gneE25" /><trip origin="gneE21" destination="gneE53" /><trip origin="gneE6" destination="gneE26" /><trip origin="gneE50" destination="gneE50" /><trip origin="-gneE29" destination="-gneE48" /><trip origin="gneE3" destination="gneE38" /><trip origin="-gneE40" destination="gneE17" /><trip origin="gneE25" destination="gneE51" /><trip origin="-gneE30" destination="gneE39" /><trip origin="gneE48" destination="gneE46" /><trip origin="gneE6" destination="-gneE3" /><trip origin="-gneE19" destination="-gneE25" /><trip origin="gneE28" destination="gneE45" /><trip origin="-gneE53" destination="-gneE5" /><trip origin="-gneE51" destination="-gneE6" /><trip origin="-gneE1" destination="-gneE16" /><trip origin="gneE5" destination="gneE53" /><trip origin="gneE29" destination="gneE40" /><trip origin="gneE42" destination="-gneE25" /><trip origin="gneE5" destination="-gneE54" /><trip origin="-gneE55" destination="-gneE42" /><trip origin="-gneE38" destination="-gneE33" /><trip origin="-gneE19" destination="-gneE25" /><trip origin="gneE35" destination="gneE7" /><trip origin="gneE27" destination="gneE27" /><trip origin="gneE8" destination="-gneE40" /><trip origin="-gneE1" destination="gneE16" /><trip origin="-gneE35" destination="gneE17" /><trip origin="-gneE16" destination="-gneE28" /><trip origin="-gneE47" destination="-gneE22" /><trip origin="gneE28" destination="-gneE42" /><trip origin="-gneE50" destination="-gneE41" /><trip origin="gneE48" destination="gneE22" /><trip origin="-gneE19" destination="-gneE25" /><trip origin="gneE5" destination="-gneE47" /><trip origin="gneE6" destination="-gneE50" /><trip origin="-gneE47" destination="gneE34" /><trip origin="gneE25" destination="gneE0" /><trip origin="gneE49" destination="-gneE21" /><trip origin="gneE43" destination="gneE31" /><trip origin="gneE49" destination="-gneE54" /><trip origin="gneE34" destination="-gneE43" /><trip origin="gneE1" destination="-gneE49" /><trip origin="gneE6" destination="-gneE41" /><trip origin="-gneE19" destination="-gneE25" /><trip origin="-gneE2" destination="-gneE44" /><trip origin="-gneE29" destination="-gneE28" /><trip origin="gneE53" destination="-gneE1" /><trip origin="gneE47" destination="gneE47" /><trip origin="gneE26" destination="-gneE18" /><trip origin="-gneE43" destination="-gneE17" /><trip origin="-gneE34" destination="gneE42" /><trip origin="gneE43" destination="gneE6" /><trip origin="-gneE1" destination="gneE2" /><trip origin="gneE32" destination="-gneE53" /><trip origin="-gneE19" destination="-gneE25" /><trip origin="gneE2" destination="-gneE52" /><trip origin="gneE2" destination="-gneE34" /><trip origin="-gneE17" destination="-gneE40" /><trip origin="gneE37" destination="-gneE29" /><trip origin="gneE18" destination="gneE34" /><trip origin="gneE49" destination="gneE43" /><trip origin="-gneE4" destination="gneE26" /><trip origin="-gneE45" destination="gneE1" /><trip origin="-gneE49" destination="-gneE53" /><trip origin="-gneE29" destination="gneE18" /><trip origin="-gneE19" destination="-gneE25" /><trip origin="-gneE51" destination="-gneE8" /><trip origin="-gneE39" destination="-gneE33" /><trip origin="-gneE49" destination="gneE38" /><trip origin="gneE6" destination="gneE42" /><trip origin="gneE18" destination="gneE53" /><trip origin="-gneE46" destination="gneE0" /><trip origin="-gneE48" destination="gneE6" /><trip origin="gneE30" destination="gneE5" /><trip origin="-gneE15" destination="-gneE17" /><trip origin="gneE27" destination="-gneE6" /><trip origin="-gneE19" destination="-gneE25" /><trip origin="-gneE2" destination="gneE15" /><trip origin="-gneE4" destination="-gneE2" /><trip origin="-gneE31" destination="-gneE22" /><trip origin="gneE48" destination="gneE45" /><trip origin="-gneE29" destination="gneE32" /><trip origin="gneE44" destination="gneE48" /><trip origin="-gneE49" destination="gneE17" /><trip origin="-gneE0" destination="-gneE8" /><trip origin="gneE5" destination="gneE55" /><trip origin="-gneE2" destination="gneE51" /><trip origin="-gneE19" destination="-gneE25" /><trip origin="gneE32" destination="-gneE33" /><trip origin="-gneE21" destination="gneE51" /><trip origin="gneE55" destination="-gneE6" /><trip origin="-gneE38" destination="gneE44" /><trip origin="gneE8" destination="gneE21" /><trip origin="gneE7" destination="gneE26" /><trip origin="-gneE55" destination="-gneE18" /><trip origin="-gneE18" destination="gneE30" /><trip origin="-gneE18" destination="-gneE18" /><trip origin="gneE26" destination="-gneE31" /><trip origin="-gneE19" destination="-gneE25" /><trip origin="-gneE43" destination="-gneE28" /><trip origin="gneE23" destination="-gneE52" /><trip origin="gneE23" destination="-gneE17" /><trip origin="-gneE6" destination="-gneE17" /><trip origin="gneE26" destination="-gneE45" /><trip origin="-gneE34" destination="-gneE42" /><trip origin="-gneE15" destination="gneE49" /><trip origin="gneE54" destination="-gneE52" /><trip origin="gneE2" destination="gneE29" /><trip origin="gneE8" destination="gneE16" /><trip origin="-gneE19" destination="-gneE25" /><trip origin="-gneE0" destination="gneE20" /><trip origin="-gneE26" destination="gneE28" /><trip origin="gneE38" destination="-gneE41" /><trip origin="gneE40" destination="gneE1" /><trip origin="gneE23" destination="-gneE7" /><trip origin="gneE35" destination="gneE37" /><trip origin="gneE51" destination="gneE16" /><trip origin="gneE5" destination="gneE7" /><trip origin="-gneE30" destination="-gneE28" /><trip origin="-gneE25" destination="-gneE5" /><trip origin="-gneE19" destination="-gneE25" /><trip origin="-gneE33" destination="gneE30" /><trip origin="gneE29" destination="-gneE1" /><trip origin="gneE34" destination="gneE37" /><trip origin="-gneE2" destination="gneE30" /><trip origin="gneE43" destination="gneE16" /><trip origin="-gneE1" destination="-gneE45" /><trip origin="-gneE5" destination="gneE26" /><trip origin="gneE7" destination="-gneE53" /><trip origin="gneE27" destination="gneE7" /><trip origin="gneE48" destination="gneE55" /><trip origin="-gneE19" destination="-gneE25" /><trip origin="-gneE5" destination="gneE42" /><trip origin="gneE1" destination="gneE6" /><trip origin="gneE36" destination="gneE55" /><trip origin="gneE18" destination="-gneE54" /><trip origin="-gneE2" destination="gneE36" /><trip origin="gneE8" destination="gneE0" /><trip origin="-gneE2" destination="gneE31" /><trip origin="-gneE35" destination="gneE15" /><trip origin="-gneE28" destination="-gneE33" /><trip origin="gneE33" destination="-gneE22" /><trip origin="-gneE19" destination="-gneE25" /><trip origin="gneE52" destination="-gneE49" /><trip origin="-gneE37" destination="-gneE22" /><trip origin="-gneE41" destination="gneE4" /><trip origin="gneE47" destination="-gneE46" /><trip origin="gneE50" destination="-gneE39" /><trip origin="gneE17" destination="-gneE27" /><trip origin="gneE55" destination="-gneE25" /><trip origin="gneE26" destination="-gneE8" /><trip origin="-gneE2" destination="-gneE28" /><trip origin="-gneE6" destination="-gneE1" /><trip origin="-gneE19" destination="-gneE25" /><trip origin="-gneE4" destination="gneE30" /><trip origin="-gneE37" destination="gneE40" /><trip origin="gneE41" destination="-gneE44" /><trip origin="gneE21" destination="gneE44" /><trip origin="gneE49" destination="-gneE16" /><trip origin="-gneE7" destination="gneE36" /><trip origin="gneE2" destination="gneE43" /><trip origin="gneE37" destination="gneE5" /><trip origin="gneE41" destination="-gneE2" /><trip origin="gneE18" destination="-gneE33" /><trip origin="-gneE19" destination="-gneE25" /><trip origin="-gneE48" destination="-gneE3" /><trip origin="gneE55" destination="gneE27" /><trip origin="gneE27" destination="gneE47" /><trip origin="gneE29" destination="-gneE26" /><trip origin="-gneE48" destination="gneE50" /><trip origin="gneE47" destination="-gneE31" /><trip origin="-gneE0" destination="-gneE51" /><trip origin="-gneE30" destination="gneE1" /><trip origin="gneE17" destination="gneE34" /><trip origin="gneE50" destination="gneE50" /><trip origin="-gneE19" destination="-gneE25" /><trip origin="gneE54" destination="gneE55" /><trip origin="-gneE49" destination="-gneE28" /><trip origin="gneE31" destination="-gneE1" /><trip origin="-gneE4" destination="gneE1" /><trip origin="-gneE41" destination="gneE2" /><trip origin="gneE32" destination="gneE5" /><trip origin="-gneE36" destination="-gneE46" /><trip origin="gneE34" destination="-gneE46" /><trip origin="-gneE18" destination="gneE43" /><trip origin="gneE16" destination="-gneE5" /><trip origin="-gneE19" destination="-gneE25" /><trip origin="gneE54" destination="gneE47" /><trip origin="gneE52" destination="gneE2" /><trip origin="gneE49" destination="gneE46" /><trip origin="gneE49" destination="-gneE54" /><trip origin="-gneE22" destination="gneE37" /><trip origin="gneE51" destination="-gneE21" /><trip origin="-gneE47" destination="gneE35" /><trip origin="-gneE32" destination="-gneE3" /><trip origin="gneE44" destination="gneE50" /><trip origin="gneE25" destination="gneE49" /><trip origin="-gneE19" destination="-gneE25" /><trip origin="gneE2" destination="gneE53" /><trip origin="gneE27" destination="gneE44" /><trip origin="-gneE43" destination="-gneE37" /><trip origin="gneE2" destination="-gneE28" /><trip origin="-gneE5" destination="-gneE7" /><trip origin="-gneE39" destination="-gneE55" /><trip origin="-gneE29" destination="-gneE17" /><trip origin="gneE55" destination="-gneE40" /><trip origin="-gneE43" destination="-gneE34" /><trip origin="-gneE52" destination="gneE20" /><trip origin="-gneE19" destination="-gneE25" /><trip origin="-gneE28" destination="gneE52" /><trip origin="gneE30" destination="gneE21" /><trip origin="gneE43" destination="-gneE48" /><trip origin="-gneE29" destination="-gneE28" /><trip origin="gneE35" destination="gneE18" /><trip origin="gneE35" destination="-gneE26" /><trip origin="-gneE54" destination="gneE32" /><trip origin="gneE51" destination="-gneE37" /><trip origin="gneE50" destination="gneE51" /><trip origin="-gneE6" destination="-gneE52" /><trip origin="-gneE19" destination="-gneE25" /><trip origin="-gneE16" destination="-gneE35" /><trip origin="gneE7" destination="-gneE34" /><trip origin="-gneE6" destination="gneE55" /><trip origin="-gneE22" destination="gneE33" /><trip origin="gneE18" destination="gneE20" /><trip origin="gneE34" destination="gneE16" /><trip origin="gneE35" destination="gneE36" /><trip origin="-gneE17" destination="-gneE44" /><trip origin="-gneE27" destination="gneE21" /><trip origin="-gneE2" destination="-gneE39" /><trip origin="-gneE19" destination="-gneE25" /><trip origin="gneE18" destination="gneE49" /><trip origin="gneE7" destination="-gneE31" /><trip origin="gneE39" destination="-gneE3" /><trip origin="gneE3" destination="gneE7" /><trip origin="gneE53" destination="gneE20" /><trip origin="gneE47" destination="gneE6" /><trip origin="-gneE50" destination="gneE30" /><trip origin="-gneE49" destination="-gneE29" /><trip origin="gneE54" destination="-gneE28" /><trip origin="gneE27" destination="-gneE23" /><trip origin="-gneE19" destination="-gneE25" /><trip origin="-gneE52" destination="gneE44" /><trip origin="-gneE36" destination="-gneE1" /><trip origin="gneE44" destination="-gneE40" /><trip origin="-gneE26" destination="gneE5" /><trip origin="-gneE6" destination="gneE38" /><trip origin="gneE22" destination="gneE36" /><trip origin="gneE34" destination="gneE16" /><trip origin="-gneE52" destination="gneE49" /><trip origin="-gneE31" destination="-gneE40" /><trip origin="gneE21" destination="gneE18" /><trip origin="-gneE19" destination="-gneE25" /><trip origin="-gneE17" destination="gneE52" /><trip origin="-gneE21" destination="-gneE8" /><trip origin="-gneE50" destination="-gneE50" /><trip origin="gneE18" destination="gneE6" /><trip origin="-gneE32" destination="gneE44" /><trip origin="-gneE47" destination="-gneE8" /><trip origin="gneE19" destination="gneE20" /><trip origin="-gneE51" destination="-gneE35" /><trip origin="-gneE46" destination="gneE54" /><trip origin="gneE22" destination="-gneE41" /><trip origin="-gneE19" destination="-gneE25" /><trip origin="-gneE21" destination="-gneE47" /><trip origin="-gneE36" destination="gneE51" /><trip origin="-gneE29" destination="gneE22" /><trip origin="gneE41" destination="gneE41" /><trip origin="gneE35" destination="gneE47" /><trip origin="gneE30" destination="-gneE48" /><trip origin="gneE25" destination="-gneE33" /><trip origin="gneE30" destination="-gneE34" /><trip origin="-gneE32" destination="-gneE38" /><trip origin="-gneE47" destination="-gneE34" /><trip origin="-gneE19" destination="-gneE25" /><trip origin="gneE45" destination="gneE34" /><trip origin="gneE52" destination="-gneE32" /><trip origin="gneE28" destination="gneE7" /><trip origin="-gneE22" destination="gneE37" /><trip origin="gneE46" destination="gneE2" /><trip origin="gneE47" destination="-gneE28" /><trip origin="-gneE17" destination="gneE31" /><trip origin="gneE50" destination="-gneE30" /><trip origin="-gneE25" destination="gneE26" /><trip origin="-gneE52" destination="gneE22" /><trip origin="-gneE19" destination="-gneE25" /><trip origin="-gneE20" destination="gneE42" /><trip origin="gneE41" destination="-gneE16" /><trip origin="-gneE20" destination="gneE16" /><trip origin="gneE41" destination="gneE1" /><trip origin="gneE37" destination="gneE27" /><trip origin="gneE30" destination="-gneE17" /><trip origin="-gneE29" destination="-gneE44" /><trip origin="-gneE5" destination="-gneE22" /><trip origin="gneE40" destination="-gneE50" /><trip origin="-gneE40" destination="-gneE30" /><trip origin="-gneE19" destination="-gneE25" /><trip origin="-gneE29" destination="gneE39" /><trip origin="gneE25" destination="-gneE26" /><trip origin="-gneE21" destination="gneE42" /><trip origin="gneE54" destination="-gneE1" /><trip origin="gneE48" destination="gneE54" /><trip origin="gneE2" destination="gneE31" /><trip origin="-gneE5" destination="-gneE5" /><trip origin="-gneE20" destination="gneE21" /><trip origin="gneE27" destination="-gneE54" /><trip origin="gneE27" destination="-gneE23" /><trip origin="-gneE19" destination="-gneE25" /><trip origin="gneE37" destination="-gneE50" /><trip origin="-gneE2" destination="-gneE19" /><trip origin="-gneE44" destination="-gneE5" /><trip origin="-gneE6" destination="-gneE34" /><trip origin="gneE50" destination="-gneE18" /><trip origin="-gneE38" destination="-gneE19" /><trip origin="gneE28" destination="gneE34" /><trip origin="-gneE22" destination="-gneE27" /><trip origin="-gneE21" destination="-gneE48" /><trip origin="-gneE48" destination="-gneE26" /><trip origin="-gneE19" destination="-gneE25" /><trip origin="-gneE30" destination="gneE7" /><trip origin="-gneE51" destination="-gneE40" /><trip origin="gneE42" destination="gneE53" /><trip origin="-gneE38" destination="gneE16" /><trip origin="gneE7" destination="-gneE6" /><trip origin="-gneE52" destination="gneE15" /><trip origin="-gneE55" destination="-gneE25" /><trip origin="gneE28" destination="gneE18" /><trip origin="gneE26" destination="gneE7" /><trip origin="-gneE17" destination="-gneE36" /><trip origin="-gneE19" destination="-gneE25" /><trip origin="-gneE28" destination="gneE20" /><trip origin="-gneE37" destination="-gneE5" /><trip origin="gneE47" destination="-gneE5" /><trip origin="-gneE6" destination="-gneE29" /><trip origin="-gneE28" destination="gneE49" /><trip origin="-gneE34" destination="gneE55" /><trip origin="-gneE35" destination="-gneE42" /><trip origin="-gneE21" destination="-gneE2" /><trip origin="gneE45" destination="gneE51" /><trip origin="gneE54" destination="gneE21" /><trip origin="-gneE19" destination="-gneE25" /><trip origin="gneE5" destination="gneE16" /><trip origin="-gneE55" destination="gneE53" /><trip origin="gneE40" destination="-gneE17" /><trip origin="gneE28" destination="gneE34" /><trip origin="-gneE4" destination="gneE5" /><trip origin="gneE2" destination="gneE53" /><trip origin="-gneE54" destination="gneE43" /><trip origin="-gneE17" destination="-gneE21" /><trip origin="gneE53" destination="gneE45" /><trip origin="-gneE49" destination="-gneE3" /><trip origin="-gneE19" destination="-gneE25" /><trip origin="-gneE49" destination="-gneE17" /><trip origin="-gneE25" destination="gneE34" /><trip origin="-gneE27" destination="gneE20" /><trip origin="-gneE53" destination="gneE45" /><trip origin="-gneE52" destination="-gneE45" /><trip origin="-gneE27" destination="gneE26" /><trip origin="gneE18" destination="gneE53" /><trip origin="-gneE50" destination="-gneE26" /><trip origin="gneE52" destination="-gneE29" /><trip origin="gneE29" destination="gneE46" /><trip origin="-gneE19" destination="-gneE25" /><trip origin="gneE54" destination="gneE37" /><trip origin="-gneE18" destination="-gneE5" /><trip origin="gneE52" destination="-gneE40" /><trip origin="-gneE38" destination="gneE17" /><trip origin="gneE23" destination="gneE4" /><trip origin="-gneE0" destination="-gneE22" /><trip origin="gneE28" destination="-gneE50" /><trip origin="-gneE7" destination="gneE41" /><trip origin="-gneE38" destination="gneE35" /><trip origin="gneE5" destination="-gneE21" /><trip origin="-gneE19" destination="-gneE25" /><trip origin="-gneE34" destination="-gneE7" /><trip origin="-gneE1" destination="gneE28" /><trip origin="gneE16" destination="gneE29" /><trip origin="-gneE17" destination="-gneE50" /><trip origin="gneE52" destination="gneE48" /><trip origin="gneE28" destination="-gneE22" /><trip origin="gneE17" destination="-gneE55" /><trip origin="-gneE37" destination="gneE40" /><trip origin="gneE21" destination="gneE17" /><trip origin="-gneE54" destination="gneE44" /><trip origin="-gneE19" destination="-gneE25" /><trip origin="gneE48" destination="-gneE40" /><trip origin="-gneE6" destination="-gneE50" /><trip origin="-gneE16" destination="gneE39" /><trip origin="-gneE31" destination="-gneE29" /><trip origin="gneE38" destination="-gneE8" /><trip origin="gneE1" destination="-gneE50" /><trip origin="-gneE18" destination="gneE32" /><trip origin="-gneE37" destination="-gneE25" /><trip origin="-gneE41" destination="gneE17" /><trip origin="gneE28" destination="gneE36" /><trip origin="-gneE19" destination="-gneE25" /><trip origin="-gneE32" destination="-gneE45" /><trip origin="gneE3" destination="-gneE21" /><trip origin="gneE21" destination="gneE4" /><trip origin="gneE26" destination="-gneE21" /><trip origin="-gneE45" destination="-gneE7" /><trip origin="gneE48" destination="-gneE46" /><trip origin="gneE19" destination="gneE48" /><trip origin="-gneE50" destination="gneE25" /><trip origin="-gneE31" destination="-gneE31" /><trip origin="-gneE50" destination="-gneE16" /><trip origin="-gneE19" destination="-gneE25" /><trip origin="-gneE43" destination="-gneE49" /><trip origin="gneE42" destination="-gneE7" /><trip origin="gneE54" destination="gneE34" /><trip origin="-gneE1" destination="-gneE34" /><trip origin="gneE40" destination="gneE26" /><trip origin="gneE30" destination="gneE29" /><trip origin="-gneE18" destination="-gneE32" /><trip origin="gneE8" destination="gneE43" /><trip origin="-gneE16" destination="gneE49" /><trip origin="-gneE34" destination="gneE50" /><trip origin="-gneE19" destination="-gneE25" /><trip origin="gneE45" destination="-gneE33" /><trip origin="gneE48" destination="gneE18" /><trip origin="-gneE28" destination="-gneE31" /><trip origin="gneE31" destination="-gneE30" /><trip origin="gneE41" destination="gneE17" /><trip origin="gneE39" destination="-gneE22" /><trip origin="-gneE54" destination="-gneE28" /><trip origin="gneE25" destination="gneE0" /><trip origin="gneE40" destination="gneE34" /><trip origin="-gneE16" destination="gneE18" /><trip origin="-gneE19" destination="-gneE25" /><trip origin="-gneE31" destination="gneE39" /><trip origin="-gneE5" destination="gneE4" /><trip origin="gneE46" destination="gneE34" /><trip origin="gneE29" destination="gneE22" /><trip origin="-gneE16" destination="-gneE41" /><trip origin="gneE35" destination="-gneE47" /><trip origin="-gneE7" destination="-gneE54" /><trip origin="gneE43" destination="-gneE19" /><trip origin="gneE46" destination="gneE54" /><trip origin="gneE1" destination="gneE34" /><trip origin="-gneE19" destination="-gneE25" /><trip origin="gneE2" destination="-gneE16" /><trip origin="-gneE53" destination="gneE39" /><trip origin="gneE22" destination="-gneE21" /><trip origin="gneE27" destination="-gneE38" /><trip origin="-gneE5" destination="gneE15" /><trip origin="gneE45" destination="-gneE44" /><trip origin="-gneE20" destination="gneE22" /><trip origin="-gneE38" destination="gneE25" /><trip origin="-gneE51" destination="-gneE23" /><trip origin="gneE3" destination="-gneE36" /><trip origin="-gneE19" destination="-gneE25" /><trip origin="-gneE4" destination="-gneE43" /><trip origin="-gneE5" destination="-gneE54" /><trip origin="-gneE0" destination="-gneE28" /><trip origin="gneE18" destination="-gneE37" /><trip origin="gneE38" destination="-gneE5" /><trip origin="gneE8" destination="-gneE1" /><trip origin="gneE52" destination="gneE0" /><trip origin="-gneE52" destination="gneE15" /><trip origin="-gneE49" destination="-gneE23" /><trip origin="gneE47" destination="-gneE21" /><trip origin="-gneE19" destination="-gneE25" /><trip origin="-gneE2" destination="-gneE45" /><trip origin="-gneE5" destination="gneE21" /><trip origin="-gneE41" destination="-gneE55" /><trip origin="gneE38" destination="gneE30" /><trip origin="-gneE27" destination="-gneE25" /><trip origin="gneE40" destination="gneE46" /><trip origin="gneE7" destination="gneE20" /><trip origin="gneE44" destination="-gneE31" /><trip origin="-gneE54" destination="gneE36" /><trip origin="-gneE1" destination="gneE4" /><trip origin="-gneE19" destination="-gneE25" /><trip origin="gneE42" destination="gneE47" /><trip origin="-gneE53" destination="-gneE36" /><trip origin="gneE49" destination="-gneE8" /><trip origin="-gneE51" destination="-gneE3" /><trip origin="gneE8" destination="gneE42" /><trip origin="gneE22" destination="gneE31" /><trip origin="gneE45" destination="-gneE16" /><trip origin="gneE32" destination="-gneE22" /><trip origin="gneE5" destination="gneE46" /><trip origin="-gneE38" destination="gneE15" /><trip origin="-gneE19" destination="-gneE25" /><trip origin="gneE36" destination="gneE22" /><trip origin="gneE52" destination="-gneE51" /><trip origin="gneE23" destination="gneE29" /><trip origin="-gneE44" destination="gneE51" /><trip origin="gneE34" destination="gneE42" /><trip origin="gneE39" destination="gneE37" /><trip origin="gneE23" destination="-gneE21" /><trip origin="gneE6" destination="-gneE17" /><trip origin="gneE54" destination="gneE22" /><trip origin="-gneE49" destination="gneE55" /><trip origin="-gneE19" destination="-gneE25" /><trip origin="gneE7" destination="gneE32" /><trip origin="-gneE6" destination="gneE22" /><trip origin="gneE53" destination="-gneE39" /><trip origin="gneE55" destination="-gneE45" /><trip origin="gneE44" destination="-gneE8" /><trip origin="gneE17" destination="gneE2" /><trip origin="-gneE43" destination="-gneE16" /><trip origin="-gneE35" destination="gneE44" /><trip origin="gneE45" destination="-gneE8" /><trip origin="-gneE17" destination="gneE42" /><trip origin="-gneE19" destination="-gneE25" /><trip origin="-gneE6" destination="gneE53" /><trip origin="gneE16" destination="-gneE51" /><trip origin="-gneE44" destination="-gneE34" /><trip origin="-gneE16" destination="-gneE33" /><trip origin="gneE31" destin