<trips><trip origin="-293192367#6" destination="232591811#0" /><trip origin="-232846231#2" destination="-293192364#3" /><trip origin="-446971621#2" destination="-207223272#2" /><trip origin="-34109832#1" destination="445695121" /><trip origin="207223487#0" destination="-293192364#3" /><trip origin="687248933#0" destination="30979310" /><trip origin="23473100#0" destination="62058056#0" /><trip origin="30759232#0" destination="222151618#5" /><trip origin="34121615#0" destination="-220955237#11" /><trip origin="-33024553#3" destination="293192367#0.41" /><trip origin="-334797593#1.42" destination="-220918245#1" /><trip origin="34551387#0" destination="-542549034#1" /><trip origin="3996325" destination="493830471#0" /><trip origin="gneE18" destination="-33023075#4" /><trip origin="3996337#0" destination="-293192364#3" /><trip origin="446960423#0" destination="-33023072#3" /><trip origin="-435629850" destination="-35155499#3" /><trip origin="-34545779#2" destination="-36355963#2" /><trip origin="-444707654" destination="22738843#0" /><trip origin="-244248087#1" destination="-4281669#2" /><trip origin="446994466#0" destination="62058056#0" /><trip origin="5686883#0" destination="-277877819#2" /><trip origin="542549034#0" destination="-542398522#1" /><trip origin="-446998088#1" destination="-446994466#4" /><trip origin="30759232#0" destination="432298981#0" /><trip origin="680812301#0.45" destination="-45155111#3" /><trip origin="-446998088#1" destination="-33024564#4" /><trip origin="-4281719#2" destination="-542398522#1" /><trip origin="21674222#0.6" destination="-220918439#1" /><trip origin="34551383#0" destination="41789358#0" /><trip origin="4847551#0" destination="456361612#0" /><trip origin="207223487#0" destination="858650162" /><trip origin="-244248087#1" destination="-220955237#11" /><trip origin="293192367#0.41" destination="293192364#0" /><trip origin="-432298981#5" destination="-33023072#3" /><trip origin="30327576#0" destination="407507550#1" /><trip origin="34121615#0" destination="204493904#0" /><trip origin="4651746#0" destination="-680230451#1" /><trip origin="432298981#0" destination="34551385#0" /><trip origin="35155498#0" destination="-gneE18" /><trip origin="19882351.21" destination="-220918245#1" /><trip origin="446994466#0" destination="446841731#0" /><trip origin="432298981#0" destination="-34551383#1" /><trip origin="-41789358#3" destination="233180844#0" /><trip origin="5686885#0" destination="34545779#0" /><trip origin="28823583#0" destination="-851809955#3" /><trip origin="-446971621#2" destination="-234733018#0" /><trip origin="-207223487#1" destination="gneE16" /><trip origin="62058057#0" destination="-277877819#2" /><trip origin="-45155111#3" destination="233180844#0" /><trip origin="-293192364#3" destination="435629850" /><trip origin="30775361#0" destination="6147946" /><trip origin="-334797593#1.42" destination="36355963#0" /><trip origin="446810239#0" destination="4000043#0" /><trip origin="30979310" destination="446784161" /><trip origin="45473333#3" destination="-64370254#5" /><trip origin="339557020#0" destination="220955237#10" /><trip origin="248101310#0" destination="449550551#0" /><trip origin="4281669#0" destination="445695121" /><trip origin="4847551#6" destination="34551385#0" /><trip origin="-34551384#13" destination="-293192364#3" /><trip origin="695753527#1" destination="34109832#0" /><trip origin="33023072#0.23" destination="-34551383#1" /><trip origin="446810239#0" destination="-23973402#5" /><trip origin="4847551#6" destination="45155110#0" /><trip origin="34551385#0" destination="-3996325" /><trip origin="64370254#4" destination="34551388#0" /><trip origin="232846231#0" destination="-34551387#1" /><trip origin="-228017232#1" destination="4000043#0" /><trip origin="-334797593#1.42" destination="23473100#0" /><trip origin="-449550551#2" destination="220918702#0" /><trip origin="680812301#0.45" destination="-407507550#2.18" /><trip origin="493830469#0" destination="449550551#0" /><trip origin="-34551384#13" destination="30679706#0" /><trip origin="30861344#0" destination="-34386967#2" /><trip origin="-33023075#4" destination="21674222#0.6" /><trip origin="-33651795#4" destination="36355963#0" /><trip origin="-34551385#2" destination="207223272#13" /><trip origin="21670040.60" destination="22241344#0-AddedOffRampEdge" /><trip origin="28823581#3" destination="293192367#0.41" /><trip origin="30861344#0" destination="432298981#0" /><trip origin="458513996#0" destination="-45155111#3" /><trip origin="-45473333#2" destination="-446996497#1" /><trip origin="-446784162#1" destination="858650162" /><trip origin="232591811#0" destination="22241344#0-AddedOffRampEdge" /><trip origin="314651045#4" destination="-296783426#5.50" /><trip origin="26129097#3.29" destination="-234733018#0" /><trip origin="-45473333#2" destination="-33023075#4" /><trip origin="446971622#0" destination="458263065#0" /><trip origin="204493904#0" destination="-851809955#3" /><trip origin="-45155110#2" destination="219262778#8" /><trip origin="446810239#0" destination="30679706#0" /><trip origin="-446971621#2" destination="458263065#0" /><trip origin="6147946" destination="-248101310#6" /><trip origin="9423182#0" destination="30759232#0" /><trip origin="-34551387#1" destination="-33651797#1" /><trip origin="34386967#0.67" destination="4167752#8" /><trip origin="gneE17" destination="233396010#0" /><trip origin="314651045#4" destination="445862068#0" /><trip origin="216696536" destination="23473100#0" /><trip origin="446994466#0" destination="432298981#0" /><trip origin="33024556#0" destination="34109832#0" /><trip origin="30775359#0" destination="45155111#0" /><trip origin="133595017" destination="-33024553#3" /><trip origin="446810239#0" destination="449550551#0" /><trip origin="-45155111#3" destination="863872068.46" /><trip origin="446810239#0" destination="-680230451#1" /><trip origin="-41789358#3" destination="680812301#0.45" /><trip origin="339557020#0" destination="-5686883#1" /><trip origin="-293192088#4" destination="33023075#0" /><trip origin="216696536" destination="248101310#7" /><trip origin="-695753527#1" destination="124690744#0" /><trip origin="458513996#0" destination="-36355963#2" /><trip origin="232593626#0" destination="293192088#0" /><trip origin="151178680" destination="-4321248#3" /><trip origin="gneE17" destination="-4321248#3" /><trip origin="277877819#0" destination="224315808#0.28" /><trip origin="64370254#4" destination="-446840767#1" /><trip origin="62058057#0" destination="-3996325" /><trip origin="-446996497#1" destination="41789358#0" /><trip origin="-446840767#1" destination="-446996497#1" /><trip origin="3996337#0" destination="214497643#15" /><trip origin="293192367#0.41" destination="-34121615#3" /><trip origin="695753527#1" destination="24267451" /><trip origin="-407507550#2.18" destination="-33024553#3" /><trip origin="-446996497#1" destination="-277877819#2" /><trip origin="456361612#0" destination="-695753527#1" /><trip origin="-4652077#3" destination="-36355963#2" /><trip origin="-30327576#2" destination="24267451" /><trip origin="gneE18" destination="-456361612#2" /><trip origin="36355963#0" destination="-33023072#3" /><trip origin="35565361#0" destination="-23473100#2" /><trip origin="216696534" destination="-277877819#2" /><trip origin="4663340#0" destination="-339557020#1" /><trip origin="-45155111#3" destination="-234733018#0" /><trip origin="33023075#0" destination="293192367#0.41" /><trip origin="-34551388#4" destination="33024562#0" /><trip origin="28823581#3" destination="-34386967#2" /><trip origin="-45155111#3" destination="-33651797#1" /><trip origin="216696536" destination="-432298981#5" /><trip origin="-432298981#5" destination="-34551383#1" /><trip origin="407507550#1" destination="-432298981#5" /><trip origin="4847551#0" destination="222151618#5" /><trip origin="33023075#0" destination="33910433#0" /><trip origin="35155501" destination="-296783427#7" /><trip origin="446994466#0" destination="-542398522#1" /><trip origin="98243455" destination="-851809955#3" /><trip origin="-456361612#2" destination="30979310" /><trip origin="-33025451#1" destination="248101310#7" /><trip origin="98243455" destination="24267451" /><trip origin="-33910433#2" destination="30679706#0" /><trip origin="446994466#0" destination="680812301#0.45" /><trip origin="5686883#0" destination="-4321248#3" /><trip origin="45155111#0" destination="863872068.46" /><trip origin="-228017232#1" destination="-33024556#1" /><trip origin="19882351.21" destination="-446994466#4" /><trip origin="9423182#0" destination="4652077#0" /><trip origin="407507550#1" destination="64370254#4" /><trip origin="687248933#0" destination="863872068.46" /><trip origin="-207223487#1" destination="863872068.46" /><trip origin="4847551#0" destination="-456361612#2" /><trip origin="19882351.21" destination="33024562#0" /><trip origin="25757061#0" destination="-446994466#4" /><trip origin="207223272#0" destination="-34551387#1" /><trip origin="-207223487#1" destination="671763655#1" /><trip origin="34551385#0" destination="24267451" /><trip origin="-33025565#5" destination="-23473100#2" /><trip origin="-234733018#0" destination="248101310#7" /><trip origin="9423182#0" destination="671763655#1" /><trip origin="407507550#1" destination="-446994466#4" /><trip origin="-446971621#2" destination="-444707654" /><trip origin="-33023075#4" destination="-9423182#1" /><trip origin="33024556#0" destination="64370254#4" /><trip origin="-33023072#3" destination="-34551383#1" /><trip origin="216696534" destination="233396010#0" /><trip origin="-33023072#3" destination="-4847551#5" /><trip origin="6147946" destination="34109832#0" /><trip origin="-458513995#1" destination="35155500" /><trip origin="695753527#1" destination="23473100#0" /><trip origin="542549034#0" destination="-4281669#2" /><trip origin="-244248087#1" destination="493830471#0" /><trip origin="446996496#0" destination="445862068#0" /><trip origin="-449550551#2" destination="863872068.46" /><trip origin="-493830471#6" destination="-444707654" /><trip origin="35155498#0" destination="-9423182#1" /><trip origin="30775348#0" destination="-4321248#3" /><trip origin="446960423#0" destination="-3996337#1" /><trip origin="-293192367#6" destination="-45473333#5" /><trip origin="28823581#3" destination="24267451" /><trip origin="-207223272#16" destination="863872068.46" /><trip origin="-222151618#6" destination="-33024564#4" /><trip origin="4663340#0" destination="671763655#1" /><trip origin="248101310#0" destination="-30327576#2" /><trip origin="446810239#0" destination="33025451#0" /><trip origin="-446971621#2" destination="-4652077#3" /><trip origin="34551385#0" destination="4652077#0" /><trip origin="133595017" destination="-219262778#5" /><trip origin="207223272#0" destination="-33024564#4" /><trip origin="30861344#0" destination="45473333#1" /><trip origin="446960423#0" destination="4674599#13" /><trip origin="5686885#0" destination="-219262778#5" /><trip origin="-45155110#2" destination="-445695122" /><trip origin="4674599#13" destination="-62058057#3" /><trip origin="3996337#0" destination="293192364#0" /><trip origin="446810239#0" destination="-33024564#4" /><trip origin="-435629850" destination="-33651797#1" /><trip origin="446994466#0" destination="493830471#0" /><trip origin="296783427#0" destination="124690744#0" /><trip origin="-293192364#3" destination="30979438#0" /><trip origin="33025456" destination="-207223272#2" /><trip origin="-446784162#1" destination="-30327576#2" /><trip origin="-34551384#13" destination="33910433#0" /><trip origin="680812301#0.45" destination="-23973402#5" /><trip origin="-23473100#2" destination="35159934#0" /><trip origin="296783427#0" destination="4847551#0" /><trip origin="-64370254#5" destination="43128290" /><trip origin="-33023072#3" destination="-34551387#1" /><trip origin="-446996497#1" destination="-293192364#3" /><trip origin="446996496#0" destination="449550551#0" /><trip origin="-33910433#2" destination="33024562#0" /><trip origin="-446840764#3" destination="28823582#0" /><trip origin="34121615#0" destination="-432298981#5" /><trip origin="35155498#0" destination="30759215#2" /><trip origin="gneE17" destination="220955237#10" /><trip origin="216696534" destination="207223272#13" /><trip origin="-458513995#1" destination="219262779#0" /><trip origin="-222151618#6" destination="-33023072#3" /><trip origin="-41789358#3" destination="-296783426#5.50" /><trip origin="-33025565#5" destination="446841731#0" /><trip origin="-33024553#3" destination="-3996325" /><trip origin="-233180844#2.64" destination="-3996325" /><trip origin="-23473100#2" destination="-285248539#1" /><trip origin="28823582#0" destination="19882355.48" /><trip origin="33651796#0" destination="445695121" /><trip origin="542549034#0" destination="-5686883#1" /><trip origin="-244248087#1" destination="-680230451#1" /><trip origin="-33023075#4" destination="-gneE18" /><trip origin="456361612#0" destination="30327576#0" /><trip origin="-293192088#4" destination="61760482#0" /><trip origin="219262779#0" destination="-gneE18" /><trip origin="-248101310#11" destination="-339557020#1" /><trip origin="-207223272#16" destination="-4847551#8" /><trip origin="293192364#0" destination="33023072#0.23" /><trip origin="3996337#0" destination="124690744#0" /><trip origin="-34551385#2" destination="695753527#1" /><trip origin="-354354332#2" destination="458263065#0" /><trip origin="4847551#6" destination="-234733018#0" /><trip origin="540084680#0" destination="-4847551#5" /><trip origin="21670319#4.57" destination="456361612#0" /><trip origin="-220189044#1" destination="-248101310#6" /><trip origin="-207223487#1" destination="23473100#0" /><trip origin="-207223487#1" destination="35565362#0" /><trip origin="19882351.21" destination="858650162" /><trip origin="-232846231#2" destination="-407507550#2.18" /><trip origin="542549034#0" destination="61760482#0" /><trip origin="293192367#0.41" destination="-232846231#2" /><trip origin="-45155110#2" destination="-458513996#3" /><trip origin="33023075#0" destination="4000043#0" /><trip origin="-33651798#1" destination="445695121" /><trip origin="493830469#0" destination="-542398522#1" /><trip origin="493830469#0" destination="232591811#0" /><trip origin="34386967#0.67" destination="43128290" /><trip origin="64370254#4" destination="-34551387#1" /><trip origin="21674222#0.6" destination="34109832#0" /><trip origin="542549034#0" destination="435629850" /><trip origin="277877819#0" destination="30775359#0" /><trip origin="-446971621#2" destination="21670319#4.57" /><trip origin="-220918439#1" destination="34551384#10" /><trip origin="-33910433#2" destination="220955237#10" /><trip origin="-4847551#5" destination="-296783427#7" /><trip origin="gneE17" destination="232846231#0" /><trip origin="-64370254#5" destination="-234733018#0" /><trip origin="-446996497#1" destination="33651795#0" /><trip origin="4847551#0" destination="220189044#0" /><trip origin="4651746#0" destination="24267451" /><trip origin="-33023072#3" destination="4652077#0" /><trip origin="-4847551#5" destination="-339557020#1" /><trip origin="23473100#0" destination="-33024564#4" /><trip origin="540084680#0" destination="458513995#0" /><trip origin="30759232#0" destination="-4321248#3" /><trip origin="5686883#0" destination="-33024556#1" /><trip origin="5686883#0" destination="458263065#0" /><trip origin="151178680" destination="-35155499#3" /><trip origin="gneE18" destination="863872068.46" /><trip origin="-45473333#2" destination="263506114#5" /><trip origin="21670319#4.57" destination="35159934#0" /><trip origin="-45155110#2" destination="-36355963#2" /><trip origin="-293192088#4" destination="446971622#0" /><trip origin="-446996495" destination="30430773#0" /><trip origin="4663340#0" destination="-219262778#5" /><trip origin="-33023075#4" destination="-540084680#3" /><trip origin="-33651798#1" destination="445862068#0" /><trip origin="540084680#0" destination="24267451" /><trip origin="204493904#0" destination="-4652077#3" /><trip origin="-45473333#11" destination="-45473333#5" /><trip origin="-33023075#4" destination="28823582#0" /><trip origin="851809955#0" destination="22241344#0-AddedOffRampEdge" /><trip origin="-34109832#1" destination="-34551387#1" /><trip origin="4663340#0" destination="863872068.46" /><trip origin="33024556#0" destination="gneE16" /><trip origin="21670319#4.57" destination="219262779#0" /><trip origin="-458263065#5" destination="-207223272#2" /><trip origin="407507550#1" destination="-542398522#1" /><trip origin="446960423#0" destination="21670319#4.57" /><trip origin="493830469#0" destination="858650162" /><trip origin="-36355963#2" destination="30979310" /><trip origin="458513996#0" destination="-33651797#1" /><trip origin="219262779#0" destination="-3996325" /><trip origin="-293192364#3" destination="863872068.46" /><trip origin="3996337#0" destination="30979438#0" /><trip origin="4321248#0" destination="-207223487#1" /><trip origin="21670319#4.57" destination="858650162" /><trip origin="33023072#0.23" destination="-62058057#3" /><trip origin="-444707654" destination="858650162" /><trip origin="4651746#0" destination="458263065#0" /><trip origin="-33025565#5" destination="-34386967#2" /><trip origin="30775348#0" destination="695753527#1" /><trip origin="-232846231#2" destination="-45155111#3" /><trip origin="232846231#0" destination="30679706#0" /><trip origin="219262778#0" destination="33025451#0" /><trip origin="220955237#10" destination="220918702#0" /><trip origin="gneE17" destination="-407507550#2.18" /><trip origin="-232846231#2" destination="446784162#0" /><trip origin="-45155111#3" destination="-4281669#2" /><trip origin="34551387#0" destination="gneE16" /><trip origin="9423182#0" destination="-33024553#3" /><trip origin="216696534" destination="30759232#0" /><trip origin="-45155111#3" destination="-219262778#5" /><trip origin="-33651795#4" destination="456361612#0" /><trip origin="-446996497#1" destination="222151618#5" /><trip origin="30327576#0" destination="35155500" /><trip origin="-34551387#1" destination="219262778#8" /><trip origin="-407507550#2.18" destination="24267451" /><trip origin="293192367#0.41" destination="220918702#0" /><trip origin="-4652077#3" destination="-293192367#6" /><trip origin="-34551384#13" destination="30861344#0" /><trip origin="-446784162#1" destination="-33023072#3" /><trip origin="-33024553#3" destination="-45473333#5" /><trip origin="19882351.21" destination="36355963#0" /><trip origin="98243455" destination="-5686883#1" /><trip origin="-446996495" destination="-432298981#5" /><trip origin="43128290" destination="-446996497#1" /><trip origin="-33651798#1" destination="446784162#0" /><trip origin="-34551387#1" destination="35154256#0" /><trip origin="3996337#0" destination="224315808#0.28" /><trip origin="34551387#0" destination="223420013#0" /><trip origin="-233396010#3" destination="223420013#0" /><trip origin="-435629850" destination="-4281669#2" /><trip origin="-34551384#13" destination="-444707654" /><trip origin="446994466#0" destination="34545779#0" /><trip origin="-33651795#4" destination="-540084680#3" /><trip origin="339557020#0" destination="-4281719#2" /><trip origin="248101310#0" destination="-207223487#1" /><trip origin="-34109832#1" destination="-296783426#5.50" /><trip origin="-220955237#11" destination="30861344#0" /><trip origin="-234733018#0" destination="-445695122" /><trip origin="-30979438#2" destination="41789358#0" /><trip origin="5080129#0" destination="445862068#0" /><trip origin="220955237#10" destination="858650162" /><trip origin="4281719#0" destination="62058056#0" /><trip origin="-33025451#1" destination="858650162" /><trip origin="-23473100#2" destination="-33024556#1" /><trip origin="33023072#0.23" destination="-220918439#1" /><trip origin="-4652077#3" destination="407507550#1" /><trip origin="339557020#0" destination="34551385#0" /><trip origin="-64370254#5" destination="445865881" /><trip origin="19882351.21" destination="35159934#0" /><trip origin="456361612#0" destination="-gneE18" /><trip origin="-446841731#1" destination="45155110#0" /><trip origin="64370254#4" destination="-444707654" /><trip origin="-34551384#13" destination="-23973402#5" /><trip origin="34551383#0" destination="232846231#0" /><trip origin="133595017" destination="-gneE18" /><trip origin="-233396010#3" destination="-296783426#5.50" /><trip origin="-34545779#2" destination="124690744#0" /><trip origin="695753527#1" destination="-30327576#2" /><trip origin="-36355963#2" destination="-33025448#3" /><trip origin="23973402#0" destination="-248101310#6" /><trip origin="30327576#0" destination="-540084680#3" /><trip origin="-23473100#2" destination="-293192364#3" /><trip origin="4847551#0" destination="30679706#0" /><trip origin="30979310" destination="-4281669#2" /><trip origin="33023072#0.23" destination="4847551#0" /><trip origin="-34109832#1" destination="-gneE18" /><trip origin="851809955#0" destination="21670319#4.57" /><trip origin="-228017232#1" destination="707964265#0" /><trip origin="248489460#0" destination="-3996337#1" /><trip origin="248101310#0" destination="446784161" /><trip origin="5686883#0" destination="214497643#15" /><trip origin="43128290" destination="-4281719#2" /><trip origin="339557020#0" destination="-33025448#3" /><trip origin="-334797593#1.42" destination="-33025456" /><trip origin="-220955237#11" destination="-35155499#3" /><trip origin="-23473100#2" destination="-34551383#1" /><trip origin="-695753527#1" destination="35155498#0" /><trip origin="64370254#4" destination="30775359#0" /><trip origin="30979310" destination="22738843#0" /><trip origin="-446996497#1" destination="4674599#13" /><trip origin="98243455" destination="-23473100#2" /><trip origin="151178680" destination="445862068#0" /><trip origin="296783427#0" destination="858650162" /><trip origin="-435629850" destination="232591811#0" /><trip origin="-41789358#3" destination="293192088#0" /><trip origin="4321248#0" destination="-207223272#2" /><trip origin="695753527#1" destination="-33025448#3" /><trip origin="-4281719#2" destination="35565362#0" /><trip origin="-45473333#11" destination="-35154257#1" /><trip origin="207223487#0" destination="293192364#0" /><trip origin="-34551384#13" destination="-33024564#4" /><trip origin="456361612#0" destination="24267451" /><trip origin="232593626#0" destination="-33023075#4" /><trip origin="-33025451#1" destination="-232846231#2" /><trip origin="-36355963#2" destination="446784162#0" /><trip origin="-444707654" destination="64370254#4" /><trip origin="-34551385#2" destination="24267451" /><trip origin="-493830471#6" destination="22738843#0" /><trip origin="98243455" destination="-45473333#5" /><trip origin="-446841731#1" destination="219262778#8" /><trip origin="-449550551#2" destination="-293192364#3" /><trip origin="296783427#0" destination="858650162" /><trip origin="-64370254#5" destination="6147946" /><trip origin="4281719#0" destination="220921560#0" /><trip origin="-34551385#2" destination="-23973402#5" /><trip origin="220955237#10" destination="-36355963#2" /><trip origin="-220918438#2" destination="35565362#0" /><trip origin="4281719#0" destination="-232846231#2" /><trip origin="446810239#0" destination="30430773#0" /><trip origin="gneE17" destination="-62058057#3" /><trip origin="-207223487#1" destination="-293192364#3" /><trip origin="5686885#0" destination="-296783427#7" /><trip origin="5686883#0" destination="435629850" /><trip origin="293192364#0" destination="45155111#0" /><trip origin="542398522#0.55" destination="695753527#1" /><trip origin="5080129#0" destination="33023075#0" /><trip origin="207223487#0" destination="-207223272#2" /><trip origin="4281669#0" destination="435629850" /><trip origin="-41789358#3" destination="-277877819#2" /><trip origin="204493904#0" destination="4847551#0" /><trip origin="-456361612#2" destination="30979603" /><trip origin="9423182#0" destination="30327576#0" /><trip origin="36355963#0" destination="228017232#0" /><trip origin="-45155110#2" destination="858650162" /><trip origin="36355963#0" destination="-248489460#3" /><trip origin="232593626#0" destination="-432298981#5" /><trip origin="5686883#0" destination="233180844#0" /><trip origin="-449550551#2" destination="35155500" /><trip origin="-207223487#1" destination="30775348#0" /><trip origin="35155498#0" destination="28823582#0" /><trip origin="-446840767#1" destination="858650162" /><trip origin="43128290" destination="-220918439#1" /><trip origin="30775348#0" destination="-4847551#8" /><trip origin="-263506114#9.27" destination="-339557020#1" /><trip origin="-458263065#5" destination="445695121" /><trip origin="-34109832#1" destination="-23473100#2" /><trip origin="207223487#0" destination="446784161" /><trip origin="9423182#0" destination="446810239#0" /><trip origin="4281719#0" destination="-446996497#1" /><trip origin="219262779#0" destination="33023075#0" /><trip origin="-33024553#3" destination="435629850" /><trip origin="30861344#0" destination="-232846231#2" /><trip origin="-234733018#0" destination="35565362#0" /><trip origin="458513996#0" destination="-293192367#6" /><trip origin="-207223272#16" destination="-220918439#1" /><trip origin="204493904#0" destination="248101310#7" /><trip origin="232593626#0" destination="858650162" /><trip origin="45473333#3" destination="220918702#0" /><trip origin="-248101310#11" destination="33023072#0.23" /><trip origin="4674599#13" destination="gneE16" /><trip origin="-34551385#2" destination="-33651797#1" /><trip origin="-35154256#4" destination="-220918245#1" /><trip origin="207223272#0" destination="-30327576#2" /><trip origin="542398522#0.55" destination="-296783427#7" /><trip origin="293192367#0.41" destination="-444707654" /><trip origin="446960423#0" destination="220921560#0" /><trip origin="219262779#0" destination="858650162" /><trip origin="43128290" destination="445862068#0" /><trip origin="5686883#0" destination="445695121" /><trip origin="-248101310#11" destination="407507550#1" /><trip origin="34551383#0" destination="24267451" /><trip origin="21670319#4.57" destination="449550551#0" /><trip origin="3996325" destination="263506114#5" /><trip origin="-234733018#0" destination="43128290" /><trip origin="446810239#0" destination="-45155111#3" /><trip origin="-263506114#9.27" destination="-446994466#4" /><trip origin="-244248087#1" destination="220921560#0" /><trip origin="-33651795#4" destination="-296783426#5.50" /><trip origin="-334797593#1.42" destination="207223487#0" /><trip origin="-493830471#6" destination="34551385#0" /><trip origin="98243455" destination="30759232#0" /><trip origin="43128290" destination="34545779#0" /><trip origin="446994466#0" destination="-542398522#1" /><trip origin="-34545779#2" destination="-296783426#5.50" /><trip origin="98243455" destination="19882355.48" /><trip origin="5080129#0" destination="-34551383#1" /><trip origin="-34551387#1" destination="-34386967#2" /><trip origin="-695753527#1" destination="-339557020#1" /><trip origin="3996337#0" destination="446960423#0" /><trip origin="-4281719#2" destination="34551388#0" /><trip origin="220918245#0" destination="124690744#0" /><trip origin="gneE17" destination="-62058057#3" /><trip origin="-41789358#3" destination="33025451#0" /><trip origin="-446996495" destination="28823582#0" /><trip origin="62058057#0" destination="435629850" /><trip origin="540084680#0" destination="204493904#0" /><trip origin="3996337#0" destination="219262778#8" /><trip origin="45473333#3" destination="34551385#0" /><trip origin="-233396010#3" destination="24267451" /><trip origin="133595017" destination="-33024564#4" /><trip origin="432298981#0" destination="858650162" /><trip origin="-207223272#16" destination="-3996337#1" /><trip origin="207223487#0" destination="30679706#0" /><trip origin="542398522#0.55" destination="-232846231#2" /><trip origin="3996325" destination="858650162" /><trip origin="-446996497#1" destination="33024562#0" /><trip origin="23973402#0" destination="-36355963#2" /><trip origin="gneE17" destination="34551388#0" /><trip origin="21674620#0-AddedOnRampEdge.25" destination="-4321248#3" /><trip origin="-30327576#2" destination="-9423182#1" /><trip origin="-30979438#2" destination="232846231#0" /><trip origin="62058057#0" destination="263506114#5" /><trip origin="232593626#0" destination="33910433#0" /><trip origin="-34551385#2" destination="248101310#7" /><trip origin="-446841731#1" destination="30759215#2" /><trip origin="-34551387#1" destination="224315808#0.28" /><trip origin="35565361#0" destination="-432298981#5" /><trip origin="216696534" destination="4674599#13" /><trip origin="248101310#0" destination="220189044#0" /><trip origin="219262778#0" destination="456361612#0" /><trip origin="446971622#0" destination="445862068#0" /><trip origin="30861344#0" destination="-293192367#6" /><trip origin="456361612#0" destination="314651045#0" /><trip origin="-233396010#3" destination="-33024553#3" /><trip origin="-407507550#2.18" destination="-220955237#11" /><trip origin="-456361612#2" destination="-232846231#2" /><trip origin="-220918439#1" destination="-444707654" /><trip origin="-680230451#1" destination="-4281719#2" /><trip origin="296783427#0" destination="-446994466#4" /><trip origin="248489460#0" destination="-34551383#1" /><trip origin="-4281719#2" destination="4652077#0" /><trip origin="407507550#1" destination="-34551383#1" /><trip origin="446996496#0" destination="-36355963#2" /><trip origin="30327576#0" destination="-3996337#1" /><trip origin="-33024553#3" destination="21670319#4.57" /><trip origin="-354354332#2" destination="446784161" /><trip origin="-263506114#9.27" destination="-219262778#5" /><trip origin="34551385#0" destination="-3996325" /><trip origin="-446996495" destination="30775348#0" /><trip origin="277877819#0" destination="-456361612#2" /><trip origin="445695121" destination="30861344#0" /><trip origin="33023072#0.