<trips><trip origin="BM6BM5" destination="AQ4AQ5" /><trip origin="23973402#0" destination="435629850" /><trip origin="BI3BH3" destination="AB1AA1" /><trip origin="BI6BJ6" destination="AE5AE6" /><trip origin="AD6AC6" destination="AP0AO0" /><trip origin="BG7BF7" destination="AY2AX2" /><trip origin="AU0AT0" destination="AF0AF1" /><trip origin="AC6AC7" destination="BL0BK0" /><trip origin="BF6BG6" destination="AJ4AJ5" /><trip origin="AO4AO3" destination="BA7BB7" /><trip origin="AN2AM2" destination="AL4AK4" /><trip origin="AM1AM0" destination="AY0AY1" /><trip origin="23973402#0" destination="435629850" /><trip origin="AR6AQ6" destination="AB3AA3" /><trip origin="AE4AE3" destination="BE2BE3" /><trip origin="AO6AP6" destination="AU5AU6" /><trip origin="AU6AT6" destination="AF2AF1" /><trip origin="AO1AN1" destination="AY5AY6" /><trip origin="AK1AJ1" destination="AM2AM1" /><trip origin="BA4BA3" destination="AG0AF0" /><trip origin="AG1AH1" destination="BN7BN6" /><trip origin="AR5AS5" destination="AN2AM2" /><trip origin="BA0BA1" destination="AS1AS0" /><trip origin="23973402#0" destination="435629850" /><trip origin="BA2BA3" destination="AV4AV5" /><trip origin="AX1AX0" destination="BK2BL2" /><trip origin="BM5BM6" destination="AL0AM0" /><trip origin="AR3AR4" destination="AX2AX1" /><trip origin="BC7BB7" destination="BA6AZ6" /><trip origin="AR1AR2" destination="AT2AU2" /><trip origin="AP6AP5" destination="BA1BA0" /><trip origin="BG4BF4" destination="AH7AI7" /><trip origin="BG7BG6" destination="AU5AV5" /><trip origin="AZ0AY0" destination="BE6BF6" /><trip origin="23973402#0" destination="435629850" /><trip origin="AU0AV0" destination="BE3BD3" /><trip origin="AZ6AZ5" destination="AR2AQ2" /><trip origin="AH5AH4" destination="BK4BL4" /><trip origin="AY2AX2" destination="BA5BB5" /><trip origin="AO2AP2" destination="BJ5BK5" /><trip origin="BE3BE2" destination="BH4BH3" /><trip origin="AB3AB2" destination="AS1AR1" /><trip origin="AE5AD5" destination="AQ6AQ5" /><trip origin="BB3BA3" destination="AS3AS4" /><trip origin="AH7AG7" destination="BI1BI0" /><trip origin="23973402#0" destination="435629850" /><trip origin="AB7AA7" destination="BI6BI7" /><trip origin="AA5AB5" destination="AO5AO6" /><trip origin="AS6AS7" destination="BN3BN4" /><trip origin="AU7AT7" destination="AT4AT3" /><trip origin="AP3AO3" destination="BL5BL4" /><trip origin="AT1AT2" destination="BI5BH5" /><trip origin="AC3AC4" destination="AJ4AK4" /><trip origin="BC3BC2" destination="AR7AQ7" /><trip origin="AZ2AZ1" destination="BG5BH5" /><trip origin="AO7AP7" destination="AV5AU5" /><trip origin="23973402#0" destination="435629850" /><trip origin="BC2BC1" destination="AW7AV7" /><trip origin="AV6AW6" destination="AX3AW3" /><trip origin="AN7AO7" destination="BE4BE5" /><trip origin="BC3BC4" destination="AK3AJ3" /><trip origin="AG5AH5" destination="AB4AB3" /><trip origin="AL6AL5" destination="AB2AC2" /><trip origin="BJ4BJ3" destination="AT3AT4" /><trip origin="BA1BA2" destination="AK4AK5" /><trip origin="AE1AE0" destination="AV4AW4" /><trip origin="BF0BE0" destination="AQ0AQ1" /><trip origin="23973402#0" destination="435629850" /><trip origin="AI1AI2" destination="AN4AO4" /><trip origin="AH2AH1" destination="BM1BM2" /><trip origin="BB1BA1" destination="BE2BE1" /><trip origin="AT1AT0" destination="BM5BM6" /><trip origin="BA4BA5" destination="AA2AA3" /><trip origin="AU3AT3" destination="AJ3AJ2" /><trip origin="AG4AG5" destination="AY7AY6" /><trip origin="BC2BC1" destination="AL2AK2" /><trip origin="AD0AE0" destination="AZ6AZ7" /><trip origin="AE3AE4" destination="AR5AR4" /><trip origin="23973402#0" destination="435629850" /><trip origin="BM5BM4" destination="AU1AU0" /><trip origin="AK0AK1" destination="AC2AC1" /><trip origin="BH0BG0" destination="BH3BH2" /><trip origin="BA5BA6" destination="AG7AF7" /><trip origin="AI0AJ0" destination="AM3AN3" /><trip origin="BJ7BI7" destination="AY1AY2" /><trip origin="BB3BA3" destination="AQ2AR2" /><trip origin="BF4BE4" destination="AY1AX1" /><trip origin="AN4AM4" destination="BN0BN1" /><trip origin="BF1BF2" destination="AY5AZ5" /><trip origin="23973402#0" destination="435629850" /><trip origin="BN3BN4" destination="AN3AN2" /><trip origin="AK4AJ4" destination="AA2AB2" /><trip origin="AT5AT4" destination="AO1AP1" /><trip origin="AH7AG7" destination="BN6BM6" /><trip origin="BL2BK2" destination="BC7BB7" /><trip origin="BK3BJ3" destination="BK3BK4" /><trip origin="AM4AM3" destination="AC0AC1" /><trip origin="AY1AZ1" destination="BL1BL0" /><trip origin="AN1AN0" destination="BA3BA4" /><trip origin="BI3BI4" destination="AH0AG0" /><trip origin="23973402#0" destination="435629850" /><trip origin="AY7AX7" destination="AH7AI7" /><trip origin="AD4AE4" destination="AW0AX0" /><trip origin="AS4AT4" destination="AA4AA5" /><trip origin="AT1AT0" destination="BA1BA0" /><trip origin="BF5BF6" destination="AY5AZ5" /><trip origin="BH5BG5" destination="AC5AD5" /><trip origin="BC0BC1" destination="BI3BH3" /><trip origin="BB5BA5" destination="AL2AL1" /><trip origin="AH2AH3" destination="AY1AY2" /><trip origin="AV2AV1" destination="AX2AX3" /><trip origin="23973402#0" destination="435629850" /><trip origin="AO5AO4" destination="AH0AG0" /><trip origin="AU0AT0" destination="AI6AH6" /><trip origin="AJ2AK2" destination="AV5AV4" /><trip origin="BF1BF2" destination="AS4AS5" /><trip origin="AM4AN4" destination="AX2AX1" /><trip origin="AY6AZ6" destination="AY1AY0" /><trip origin="AH5AH4" destination="AZ4AY4" /><trip origin="AE2AF2" destination="BN3BN2" /><trip origin="AU1AT1" destination="BA2BB2" /><trip origin="AA4AA5" destination="AJ7AK7" /><trip origin="23973402#0" destination="435629850" /><trip origin="AM6AM5" destination="AR0AQ0" /><trip origin="BJ4BI4" destination="AM2AM1" /><trip origin="AX4AW4" destination="BM5BM6" /><trip origin="BF0BE0" destination="BH4BG4" /><trip origin="BI1BH1" destination="AX3AY3" /><trip origin="AP5AP4" destination="BL6BL7" /><trip origin="AJ4AK4" destination="BB6BB7" /><trip origin="AW0AV0" destination="BD0BD1" /><trip origin="AA2AA3" destination="BM0BM1" /><trip origin="BI4BI5" destination="AU1AV1" /><trip origin="23973402#0" destination="435629850" /><trip origin="BL6BL5" destination="AU3AT3" /><trip origin="AJ6AK6" destination="AM5AL5" /><trip origin="BK4BJ4" destination="AJ7AJ6" /><trip origin="AT7AT6" destination="AN5AM5" /><trip origin="AX3AW3" destination="AA3AB3" /><trip origin="AB4AB5" destination="AX5AW5" /><trip origin="AJ7AJ6" destination="AW2AW1" /><trip origin="AN7AM7" destination="AZ6AZ7" /><trip origin="BM5BM6" destination="AG4AF4" /><trip origin="AL1AL0" destination="AK4AL4" /><trip origin="23973402#0" destination="435629850" /><trip origin="AM3AL3" destination="BC7BB7" /><trip origin="BM1BL1" destination="AQ5AR5" /><trip origin="BJ4BJ5" destination="AT4AT3" /><trip origin="AN7AM7" destination="AU0AV0" /><trip origin="AH2AH3" destination="AJ1AI1" /><trip origin="AI3AI4" destination="AH0AG0" /><trip origin="AB3AB4" destination="AS1AS0" /><trip origin="AQ2AQ3" destination="AC1AC0" /><trip origin="AD6AC6" destination="AD0AE0" /><trip origin="AH1AH0" destination="AV0AW0" /><trip origin="23973402#0" destination="435629850" /><trip origin="AT5AT6" destination="BJ4BJ5" /><trip origin="BB3BC3" destination="BJ2BJ1" /><trip origin="AU5AU6" destination="AI1AI2" /><trip origin="AU6AU5" destination="AI6AI7" /><trip origin="AG4AG5" destination="BJ6BJ7" /><trip origin="AZ0AZ1" destination="AN3AM3" /><trip origin="AL5AL6" destination="AO5AO6" /><trip origin="AE4AD4" destination="BJ6BJ7" /><trip origin="AW2AW3" destination="AA3AB3" /><trip origin="BH1BH2" destination="AJ4AI4" /><trip origin="23973402#0" destination="435629850" /><trip origin="BF1BF2" destination="AY6AY7" /><trip origin="BL1BM1" destination="AK2AK3" /><trip origin="AL3AL4" destination="BA4BA5" /><trip origin="AZ5AZ4" destination="AG0AG1" /><trip origin="BM7BM6" destination="AU4AU3" /><trip origin="AB0AC0" destination="AX1AX0" /><trip origin="AR4AS4" destination="BK7BL7" /><trip origin="AU0AV0" destination="AV4AU4" /><trip origin="BC0BD0" destination="BL1BK1" /><trip origin="AR5AR4" destination="AZ3AZ2" /><trip origin="23973402#0" destination="435629850" /><trip origin="BL7BK7" destination="BE2BE1" /><trip origin="AT2AT3" destination="BH6BH5" /><trip origin="BI0BI1" destination="AT7AS7" /><trip origin="AQ7AQ6" destination="BA4BA3" /><trip origin="AL4AL5" destination="AU1AU0" /><trip origin="AE1AF1" destination="AG6AH6" /><trip origin="BH0BG0" destination="AU5AU4" /><trip origin="AG1AF1" destination="AW4AW3" /><trip origin="BE3BF3" destination="AG5AG4" /><trip origin="AT2AT1" destination="BL7BK7" /><trip origin="23973402#0" destination="435629850" /><trip origin="BI3BJ3" destination="BJ1BI1" /><trip origin="AW0AX0" destination="AV6AW6" /><trip origin="AW3AV3" destination="BI3BH3" /><trip origin="AL6AL5" destination="AA7AB7" /><trip origin="AP6AP7" destination="AA7AB7" /><trip origin="AS7AR7" destination="BD2BD1" /><trip origin="AS7AT7" destination="AU6AU5" /><trip origin="BA6BA7" destination="AE3AE2" /><trip origin="AA5AB5" destination="AE7AE6" /><trip origin="AA5AA4" destination="BC6BB6" /><trip origin="23973402#0" destination="435629850" /><trip origin="BA6BA5" destination="AT5AT6" /><trip origin="AN2AO2" destination="AH5AH6" /><trip origin="AD4AD5" destination="AB7AC7" /><trip origin="AB4AB5" destination="AJ0AJ1" /><trip origin="AZ1AZ0" destination="AH7AG7" /><trip origin="BG3BH3" destination="BC1BD1" /><trip origin="AK0AL0" destination="AT6AS6" /><trip origin="BC5BD5" destination="AZ2AZ3" /><trip origin="AB6AA6" destination="BJ3BK3" /><trip origin="BA4BA3" destination="AC6AD6" /><trip origin="23973402#0" destination="435629850" /><trip origin="BF7BF6" destination="AU0AV0" /><trip origin="AD3AC3" destination="BH2BI2" /><trip origin="AE4AE3" destination="BI0BH0" /><trip origin="AT3AT4" destination="AV4AV3" /><trip origin="BL5BM5" destination="BF3BG3" /><trip origin="AX5AX6" destination="AV0AU0" /><trip origin="BB6BA6" destination="AU3AU4" /><trip origin="AY2AZ2" destination="BC4BB4" /><trip origin="BK3BL3" destination="AB6AB7" /><trip origin="BG2BG3" destination="AG4AF4" /><trip origin="23973402#0" destination="435629850" /><trip origin="BH7BH6" destination="BH3BH4" /><trip origin="AE5AE6" destination="BJ5BJ6" /><trip origin="BF2BF1" destination="AJ3AK3" /><trip origin="BE7BD7" destination="BG7BH7" /><trip origin="BM0BL0" destination="AR6AQ6" /><trip origin="AX4AX5" destination="BN3BN2" /><trip origin="BH4BI4" destination="AK5AJ5" /><trip origin="AE5AF5" destination="BN4BN5" /><trip origin="AM1AM2" destination="BF3BG3" /><trip origin="AB7AA7" destination="AQ4AP4" /><trip origin="23973402#0" destination="435629850" /><trip origin="AH0AH1" destination="AY3AY2" /><trip origin="BG3BH3" destination="AX3AX2" /><trip origin="BD3BD2" destination="BL1BK1" /><trip origin="AO0AP0" destination="AX2AX3" /><trip origin="AB7AB6" destination="AG3AF3" /><trip origin="AD7AE7" destination="AC2AB2" /><trip origin="AZ0BA0" destination="AO0AP0" /><trip origin="BD7BE7" destination="BD5BC5" /><trip origin="BK0BK1" destination="BN5BM5" /><trip origin="BG7BH7" destination="AZ1AY1" /><trip origin="23973402#0" destination="435629850" /><trip origin="AF3AG3" destination="BL3BK3" /><trip origin="AT0AS0" destination="BE7BD7" /><trip origin="AK4AK5" destination="BM4BM5" /><trip origin="AD5AC5" destination="AX7AY7" /><trip origin="AE7AE6" destination="BJ7BJ6" /><trip origin="AT0AT1" destination="AI0AI1" /><trip origin="AX6AW6" destination="AJ3AI3" /><trip origin="AO5AO6" destination="AC1AD1" /><trip origin="AK1AL1" destination="AH7AI7" /><trip origin="AF7AG7" destination="BJ0BK0" /><trip origin="23973402#0" destination="435629850" /><trip origin="BC1BB1" destination="AX4AW4" /><trip origin="BB6BB5" destination="AE1AE0" /><trip origin="AA4AB4" destination="AW4AV4" /><trip origin="AX6AW6" destination="AU5AV5" /><trip origin="AY6AY7" destination="AW6AW5" /><trip origin="AQ6AP6" destination="AC3AD3" /><trip origin="AS4AS5" destination="AM7AN7" /><trip origin="AP3AP4" destination="AT5AU5" /><trip origin="AX5AY5" destination="AR3AS3" /><trip origin="AK4AL4" destination="AL0AK0" /><trip origin="23973402#0" destination="435629850" /><trip origin="AG5AF5" destination="BH6BH5" /><trip origin="BJ4BJ3" destination="AJ7AI7" /><trip origin="AX2AX1" destination="AV6AV7" /><trip origin="BL5BK5" destination="AC0AC1" /><trip origin="AZ2BA2" destination="AK7AJ7" /><trip origin="BJ6BK6" destination="BI7BI6" /><trip origin="BB7BC7" destination="AP0AO0" /><trip origin="AP3AP4" destination="AP6AP5" /><trip origin="AA6AA5" destination="AB0AB1" /><trip origin="AV0AV1" destination="AQ5AP5" /><trip origin="23973402#0" destination="435629850" /><trip origin="BE7BF7" destination="AG5AF5" /><trip origin="AU4AT4" destination="BA0AZ0" /><trip origin="BL6BM6" destination="AC1AD1" /><trip origin="AQ3AQ4" destination="AR0AR1" /><trip origin="AU5AU4" destination="AZ1AZ0" /><trip origin="AV2AV1" destination="AS5AT5" /><trip origin="AJ0AK0" destination="AH1AH2" /><trip origin="BE7BF7" destination="AR2AR1" /><trip origin="AK4AL4" destination="AJ5AI5" /><trip origin="AU7AV7" destination="AS6AT6" /><trip origin="23973402#0" destination="435629850" /><trip origin="BH5BI5" destination="AI5AI6" /><trip origin="AP6AP7" destination="AL2AM2" /><trip origin="AG2AF2" destination="AD5AD6" /><trip origin="AA6AA5" destination="BF1BG1" /><trip origin="AB5AB4" destination="BJ1BJ0" /><trip origin="AG0AH0" destination="AZ1BA1" /><trip origin="BN5BM5" destination="AZ0AY0" /><trip origin="BG3BH3" destination="AK7AK6" /><trip origin="AZ1AZ0" destination="AG5AH5" /><trip origin="AG3AH3" destination="BH2BG2" /><trip origin="23973402#0" destination="435629850" /><trip origin="AX2AW2" destination="BL2BK2" /><trip origin="AN3AM3" destination="BD4BC4" /><trip origin="BL2BL1" destination="BE4BD4" /><trip origin="AN3AN4" destination="AQ5AP5" /><trip origin="AT0AS0" destination="BG6BG5" /><trip origin="AA5AB5" destination="AO7AN7" /><trip origin="BD4BD5" destination="AD7AE7" /><trip origin="BL0BL1" destination="BL7BK7" /><trip origin="AK2AK3" destination="AN5AM5" /><trip origin="AE0AF0" destination="BA7BB7" /><trip origin="23973402#0" destination="435629850" /><trip origin="BD2BD1" destination="BC6BB6" /><trip origin="AQ1AR1" destination="AP5AP6" /><trip origin="BH0BH1" destination="BF6BE6" /><trip origin="BB5BA5" destination="AV4AU4" /><trip origin="BN6BM6" destination="BN3BN2" /><trip origin="BL7BL6" destination="AP3AO3" /><trip origin="AI0AH0" destination="AH1AG1" /><trip origin="BD7BE7" destination="AA3AA4" /><trip origin="AI4AI3" destination="AG4AF4" /><trip origin="AJ7AJ6" destination="AL7AK7" /><trip origin="23973402#0" destination="435629850" /><trip origin="AQ7AR7" destination="BB4BA4" /><trip origin="AK2AL2" destination="AB3AA3" /><trip origin="AJ0AK0" destination="AY6AX6" /><trip origin="AY3AX3" destination="AE6AE7" /><trip origin="BL3BM3" destination="AC3AC2" /><trip origin="AP3AP4" destination="AL1AL0" /><trip origin="BG5BF5" destination="BE3BE4" /><trip origin="AS4AT4" destination="AB3AA3" /><trip origin="AM4AM3" destination="BK3BJ3" /><trip origin="AW6AW5" destination="AO7AO6" /><trip origin="23973402#0" destination="435629850" /><trip origin="AG4AG5" destination="BL6BL5" /><trip origin="BH6BH7" destination="BF1BG1" /><trip origin="AV3AW3" destination="BJ3BK3" /><trip origin="AM7AM6" destination="BL4BK4" /><trip origin="BK0BL0" destination="BI4BI3" /><trip origin="AO1AO2" destination="AM1AL1" /><trip origin="AR0AS0" destination="AY7AZ7" /><trip origin="AX4AY4" destination="BI6BI7" /><trip origin="AW0AV0" destination="BB3BB4" /><trip origin="BG1BF1" destination="BI5BH5" /><trip origin="23973402#0" destination="435629850" /><trip origin="AH3AI3" destination="AQ4AQ3" /><trip origin="BB1BB2" destination="AV7AU7" /><trip origin="AX7AY7" destination="BH0BH1" /><trip origin="AC2AC3" destination="BB6BB7" /><trip origin="BJ5BK5" destination="BC5BB5" /><trip origin="AX5AY5" destination="AB4AA4" /><trip origin="BB1BA1" destination="AT7AT6" /><trip origin="AW4AW3" destination="AG1AF1" /><trip origin="BG4BG5" destination="AX4AX5" /><trip origin="AZ4AZ3" destination="AA3AA2" /><trip origin="23973402#0" destination="435629850" /><trip origin="AH7AH6" destination="AY6AZ6" /><trip origin="AP0AO0" destination="BE3BD3" /><trip origin="AG5AH5" destination="BJ4BJ5" /><trip origin="BF6BG6" destination="AF7AE7" /><trip origin="AX4AW4" destination="AN1AN2" /><trip origin="AV1AV0" destination="BG5BF5" /><trip origin="BN4BN5" destination="AT4AU4" /><trip origin="BL3BK3" destination="BH2BG2" /><trip origin="AH4AG4" destination="AC4AC3" /><trip origin="BD4BE4" destination="AQ2AQ3" /><trip origin="23973402#0" destination="435629850" /><trip origin="AX1AW1" destination="AI2AI1" /><trip origin="AV2AW2" destination="AP5AQ5" /><trip origin="AH5AI5" destination="BG5BH5" /><trip origin="AJ3AK3" destination="AR5AR6" /><trip origin="AZ2BA2" destination="BB3BC3" /><trip origin="AX5AX4" destination="BF0BG0" /><trip origin="AH0AG0" destination="AC4AC3" /><trip origin="AK2AK1" destination="AS4AT4" /><trip origin="AV6AU6" destination="BK2BK3" /><trip origin="AO4AP4" destination="AA7AB7" /><trip origin="23973402#0" destination="435629850" /><trip origin="BE3BF3" destination="BA0BB0" /><trip origin="AE7AD7" destination="AF3AE3" /><trip origin="AB3AC3" destination="AD3AD4" /><trip origin="BA7BA6" destination="AE0AF0" /><trip origin="AZ1AZ0" destination="BF6BG6" /><trip origin="BM4BL4" destination="AV5AW5" /><trip origin="BI5BI6" destination="AK3AK2" /><trip origin="AE7AF7" destination="AP7AP6" /><trip origin="AM5AL5" destination="AR5AR4" /><trip origin="BL4BK4" destination="BH5BH6" /><trip origin="23973402#0" destination="435629850" /><trip origin="AX7AY7" destination="AI5AJ5" /><trip origin="BB2BB3" destination="AM0AM1" /><trip origin="BI2BJ2" destination="BD1BD2" /><trip origin="AV7AV6" destination="AR5AS5" /><trip origin="AO1AO2" destination="BH6BG6" /><trip origin="AB3AC3" destination="AB6AC6" /><trip origin="AV2AU2" destination="BE4BD4" /><trip origin="AK1AJ1" destination="AU1AU2" /><trip origin="AX7AW7" destination="AW7AW6" /><trip origin="AN7AM7" destination="BJ1BJ2" /><trip origin="23973402#0" destination="435629850" /><trip origin="BI2BJ2" destination="AG0AH0" /><trip origin="AN3AM3" destination="AO7AP7" /><trip origin="AP1AP0" destination="AK6AK7" /><trip origin="BG6BH6" destination="BH3BI3" /><trip origin="BJ7BJ6" destination="BJ3BJ2" /><trip origin="BK3BK4" destination="AZ1BA1" /><trip origin="AR6AR5" destination="BI5BI6" /><trip origin="AE1AE0" destination="BE5BE6" /><trip origin="AM3AN3" destination="BE6BE7" /><trip origin="BK3BL3" destination="AB2AB1" /><trip origin="23973402#0" destination="435629850" /><trip origin="AY5AY6" destination="AU3AU2" /><trip origin="AW5AV5" destination="AL6AL5" /><trip origin="BA6BB6" destination="AE0AF0" /><trip origin="AY5AX5" destination="AG6AG5" /><trip origin="AX7AX6" destination="AJ1AK1" /><trip origin="AP0AQ0" destination="AX1AX0" /><trip origin="AL3AK3" destination="AJ7AJ6" /><trip origin="AJ4AI4" destination="BK6BK5" /><trip origin="AV5AU5" destination="BA7BB7" /><trip origin="AR5AS5" destination="BG5BF5" /><trip origin="23973402#0" destination="435629850" /><trip origin="AL1AM1" destination="BA3BB3" /><trip origin="BB7BA7" destination="AY0AX0" /><trip origin="AW7AV7" destination="AW3AV3" /><trip origin="BJ2BI2" destination="BF4BG4" /><trip origin="AN1AO1" destination="AL3AL2" /><trip origin="BF7BE7" destination="BA7BB7" /><trip origin="AF4AF5" destination="AQ2AQ3" /><trip origin="BJ4BJ5" destination="BL1BK1" /><trip origin="AY1AY0" destination="AQ7AR7" /><trip origin="BL3BK3" destination="AD4AD5" /><trip origin="23973402#0" destination="435629850" /><trip origin="AV0AW0" destination="AY4AY3" /><trip origin="AH7AI7" destination="AW2AV2" /><trip origin="AF7AF6" destination="AH7AG7" /><trip origin="BF2BF3" destination="AE5AE4" /><trip origin="AC5AC6" destination="AQ7AR7" /><trip origin="AV7AU7" destination="AE4AD4" /><trip origin="AP1AO1" destination="AW0AX0" /><trip origin="BB1BB0" destination="AZ0AY0" /><trip origin="AY4AX4" destination="AW0AV0" /><trip origin="BD0BD1" destination="AI3AI2" /><trip origin="23973402#0" destination="435629850" /><trip origin="BF2BG2" destination="BG6BG5" /><trip origin="BA2BA3" destination="AS5AS4" /><trip origin="AI5AI4" destination="BK4BL4" /><trip origin="AE3AE4" destination="AU5AU4" /><trip origin="AR3AQ3" destination="AP6AQ6" /><trip origin="AT1AT2" destination="BL6BM6" /><trip origin="AY7AZ7" destination="AU5AU6" /><trip origin="AW3AW2" destination="AD5AC5" /><trip origin="AZ5AZ4" destination="AT5AT6" /><trip origin="AL4AM4" destination="BH4BG4" /><trip origin="23973402#0" destination="435629850" /><trip origin="AM1AM2" destination="AP4AP5" /><trip origin="BH6BH5" destination="AO4AP4" /><trip origin="AF2AE2" destination="AJ2AJ1" /><trip origin="AO1AN1" destination="AB3AB4" /><trip origin="BG5BF5" destination="AA7AB7" /><trip origin="AC7AC6" destination="BE6BE7" /><trip origin="AK5AK6" destination="AR2AQ2" /><trip origin="BB2BA2" destination="AM1AM2" /><trip origin="BE0BE1" destination="AH6AH7" /><trip origin="AE5AD5" destination="AR6AR5" /><trip origin="23973402#0" destination="435629850" /><trip origin="AO5AN5" destination="BG5BH5" /><trip origin="BG4BG5" destination="AF5AF6" /><trip origin="BA7AZ7" destination="AH2AG2" /><trip origin="AB4AA4" destination="BH3BG3" /><trip origin="AL6AM6" destination="AM3AN3" /><trip origin="BM6BM7" destination="AE5AE6" /><trip origin="BI2BI1" destination="AG2AF2" /><trip origin="BJ4BJ3" destination="AH7AH6" /><trip origin="AP6AQ6" destination="AM5AL5" /><trip origin="BE4BD4" destination="AW4AW3" /><trip origin="23973402#0" destination="435629850" /><trip origin="AO7AN7" destination="BL3BL2" /><trip origin="AW0AX0" destination="BN2BN1" /><trip origin="AI3AJ3" destination="BK4BK3" /><trip origin="BF5BG5" destination="AR1AS1" /><trip origin="AN2AN3" destination="AD4AC4" /><trip origin="AN6AN5" destination="AH7AI7" /><trip origin="BI3BJ3" destination="BB6BC6" /><trip origin="AE2AE1" destination="AB6AB7" /><trip origin="BG6BF6" destination="BF3BF2" /><trip origin="AX3AW3" destination="AZ2AY2" /><trip origin="23973402#0" destination="435629850" /><trip origin="AU5AU4" destination="BK1BL1" /><trip origin="AL5AL6" destination="AC4AC3" /><trip origin="AI6AI7" destination="BK1BK0" /><trip origin="AG7AG6" destination="BI4BI5" /><trip origin="AL3AL2" destination="AY6AX6" /><trip origin="BJ2BJ3" destination="AA3AA4" /><trip origin="BF0BG0" destination="BI0BH0" /><trip origin="BC5BC6" destination="AX4AW4" /><trip origin="BI1BH1" destination="AY2AZ2" /><trip origin="AC1AC0" destination="AL2AM2" /><trip origin="23973402#0" destination="435629850" /><trip origin="BC1BC2" destination="BB5BB4" /><trip origin="AI6AI5" destination="BE7BE6" /><trip origin="AD7AE7" destination="BL5BM5" /><trip origin="AP6AP5" destination="AK6AK7" /><trip origin="AZ1AZ0" destination="AK0AJ0" /><trip origin="AZ7AY7" destination="BA3BA2" /><trip origin="BI1BJ1" destination="AP1AP2" /><trip origin="AU7AT7" destination="BB5BB6" /><trip origin="AU2AU3" destination="BJ2BJ1" /><trip origin="BK3BK4" destination="AJ7AK7" /><trip origin="23973402#0" destination="435629850" /><trip origin="AL2AK2" destination="BB7BA7" /><trip origin="BD7BD6" destination="AB4AC4" /><trip origin="BJ5BJ6" destination="AU5AU6" /><trip origin="AT5AU5" destination="BC3BC2" /><trip origin="AJ3AJ2" destination="BJ7BK7" /><trip origin="AM4AL4" destination="BD5BD4" /><trip origin="BC5BC6" destination="BK0BJ0" /><trip origin="AF5AE5" destination="AV4AV3" /><trip origin="BE7BE6" destination="AY4AY5" /><trip origin="AL1AL2" destination="BA6BA5" /><trip origin="23973402#0" destination="435629850" /><trip origin="AU1AT1" destination="AI6AI5" /><trip origin="AO3AN3" destination="AE5AE4" /><trip origin="AN2AM2" destination="AW5AW4" /><trip origin="AP6AP7" destination="BI6BI5" /><trip origin="AA5AA6" destination="AZ2AY2" /><trip origin="AU5AU6" destination="BK3BK2" /><trip origin="BN6BN5" destination="AZ6BA6" /><trip origin="AR4AR3" destination="AI6AI5" /><trip origin="AM0AM1" destination="BC5BB5" /><trip origin="BE4BD4" destination="AP3AP2" /><trip origin="23973402#0" destination="435629850" /><trip origin="BN1BM1" destination="AF3AF2" /><trip origin="AY0AY1" destination="AR2AR1" /><trip origin="BK2BK1" destination="AZ6AY6" /><trip origin="BG0BF0" destination="AN5AO5" /><trip origin="BK1BL1" destination="BA6BB6" /><trip origin="BC1BB1" destination="BC2BC3" /><trip origin="AA5AB5" destination="BI1BI0" /><trip origin="AG2AF2" destination="AL0AM0" /><trip origin="AA4AA3" destination="AK4AJ4" /><trip origin="AM5AL5" destination="BJ2BJ1" /><trip origin="23973402#0" destination="435629850" /><trip origin="AG5AH5" destination="BH2BI2" /><trip origin="BC4BD4" destination="BI4BI3" /><trip origin="AP1AO1" destination="AH0AH1" /><trip origin="BM4BM3" destination="AP3AO3" /><trip origin="BD4BC4" destination="AI7AJ7" /><trip origin="AA1AB1" destination="AB4AA4" /><trip origin="AF3AE3" destination="BA4BA3" /><trip origin="BH4BH3" destination="AK7AL7" /><trip origin="BJ1BK1" destination="AD3AD2" /><trip origin="AN3AN2" destination="AQ0AR0" /><trip origin="23973402#0" destination="435629850" /><trip origin="BM3BL3" destination="AY5AY4" /><trip origin="AL4AK4" destination="BG0BF0" /><trip origin="AF2AE2" destination="AR4AR3" /><trip origin="BN2BN1" destination="AF6AF5" /><trip origin="AH6AG6" destination="AQ3AQ2" /><trip origin="BC7BB7" destination="AO1AO0" /><trip origin="BC0BC1" destination="BN6BN5" /><trip origin="BL4BM4" destination="AM3AM2" /><trip origin="AX4AW4" destination="AB7AC7" /><trip origin="AR1AR2" destination="BN5BN6" /><trip origin="23973402#0" destination="435629850" /><trip origin="AA5AB5" destination="AX7AW7" /><trip origin="AB7AA7" destination="AR0AS0" /><trip origin="AC1AB1" destination="AH3AH2" /><trip origin="AZ5AZ6" destination="AB7AC7" /><trip origin="AL1AM1" destination="AN1AN0" /><trip origin="BF7BF6" destination="AK3AK4" /><trip origin="BD0BC0" destination="AG3AG2" /><trip origin="BH1BH2" destination="BE7BE6" /><trip origin="BL2BK2" destination="AU6AU5" /><trip origin="AT1AT2" destination="BM2BM3" /><trip origin="23973402#0" destination="435629850" /><trip origin="AI3AI2" destination="BL2BL3" /><trip origin="BL1BL2" destination="AJ1AJ0" /><trip origin="AC7AC6" destination="BA5AZ5" /><trip origin="BB6BB5" destination="AF0AE0" /><trip origin="AS7AR7" destination="AD1AD0" /><trip origin="AC0AB0" destination="AP2AO2" /><trip origin="AY3AY4" destination="BC0BC1" /><trip origin="AM0AN0" destination="AI6AH6" /><trip origin="BN2BM2" destination="AW6AW7" /><trip origin="AY2AY3" destination="BI3BI4" /><trip origin="23973402#0" destination="435629850" /><trip origin="BK7BJ7" destination="AT5AS5" /><trip origin="AI0AJ0" destination="AK5AK6" /><trip origin="AS1AR1" destination="AI6AI5" /><trip origin="BN5BM5" destination="AB7AC7" /><trip origin="AF0AF1" destination="AE3AD3" /><trip origin="AX4AX5" destination="AE3AF3" /><trip origin="AO3AP3" destination="AR7AQ7" /><trip origin="AK1AK2" destination="AI6AJ6" /><trip origin="AN4AM4" destination="BI1BH1" /><trip origin="AQ3AR3" destination="AI6AJ6" /><trip origin="23973402#0" destination="435629850" /><trip origin="AM6AN6" destination="BJ6BJ5" /><trip origin="AD5AC5" destination="AT3AT4" /><trip origin="AQ4AQ3" destination="BC1BC2" /><trip origin="AB2AA2" destination="BA0BB0" /><trip origin="AC0AC1" destination="AV0AU0" /><trip origin="BL4BL5" destination="AN1AO1" /><trip origin="AJ6AK6" destination="BD2BE2" /><trip origin="AQ3AQ2" destination="AY4AZ4" /><trip origin="AL6AK6" destination="AP1AQ1" /><trip origin="BF6BG6" destination="AE0AD0" /><trip origin="23973402#0" destination="435629850" /><trip origin="AX7AW7" destination="BI2BJ2" /><trip origin="AC0AC1" destination="AG1AF1" /><trip origin="AC1AD1" destination="AG1AF1" /><trip origin="AZ4AZ3" destination="AT0AU0" /><trip origin="AY4AY5" destination="AW5AW6" /><trip origin="AH3AG3" destination="AF3AG3" /><trip origin="AT4AU4" destination="AE3AD3" /><trip origin="BH3BI3" destination="AB3AB4" /><trip origin="BI3BI2" destination="AR1AQ1" /><trip origin="AM1AM0" destination="AB2AC2" /><trip origin="23973402#0" destination="435629850" /><trip origin="AV1AU1" destination="BI6BI7" /><trip origin="AA5AA4" destination="BK6BK7" /><trip origin="BM0BL0" destination="AZ1AY1" /><trip origin="AE0AD0" destination="AW0AW1" /><trip origin="AI1AJ1" destination="AR5AS5" /><trip origin="AA6AA7" destination="AU2AU3" /><trip origin="BM2BN2" destination="BE1BE2" /><trip origin="AX6AX7" destination="BH5BH4" /><trip origin="AD2AE2" destination="AW1AX1" /><trip origin="AN6AN5" destination="BC1BB1" /><trip origin="23973402#0" destination="435629850" /><trip origin="AB7AC7" destination="AT7AU7" /><trip origin="BB0BA0" destination="BE2BF2" /><trip origin="AA6AB6" destination="AJ3AJ2" /><trip origin="AQ1AP1" destination="AG1AH1" /><trip origin="AF1AF2" destination="BB1BC1" /><trip origin="BH5BG5" destination="AV1AV2" /><trip origin="AO7AO6" destination="BM6BN6" /><trip origin="AC7AC6" destination="AP2AP3" /><trip origin="BB7BC7" destination="AM7AN7" /><trip origin="AE5AE6" destination="AW7AW6" /><trip origin="23973402#0" destination="435629850" /><trip origin="AQ2AP2" destination="AN3AN2" /><trip origin="AC6AC7" destination="AI3AI4" /><trip origin="AW0AX0" destination="BE5BD5" /><trip origin="AC1AC2" destination="AT2AT3" /><trip origin="AD3AE3" destination="AO2AP2" /><trip origin="AI2AI3" destination="BL4BM4" /><trip origin="AO0AP0" destination="BE6BD6" /><trip origin="AV2AV1" destination="AH6AH7" /><trip origin="BN1BN2" destination="AB3AC3" /><trip origin="BI0BH0" destination="AW0AW1" /><trip origin="23973402#0" destination="435629850" /><trip origin="AA1AA0" destination="AX4AW4" /><trip origin="AB4AB5" destination="AX6AW6" /><trip origin="AW4AV4" destination="BL3BL4" /><trip origin="AN7AO7" destination="BB7BC7" /><trip origin="AC0AC1" destination="AB0AB1" /><trip origin="BD4BD5" destination="AZ7BA7" /><trip or