<?xml version="1.0" encoding="UTF-8"?>

<!-- generated on 2021-07-08 21:48:45 by Eclipse SUMO netedit Version 1.9.2
<configuration xmlns:xsi="http://www.w3.org/2001/XMLSchema-instance" xsi:noNamespaceSchemaLocation="http://sumo.dlr.de/xsd/netconvertConfiguration.xsd">

    <input>
        <sumo-net-file value="/home/fazel/Adaptive_Routing_W_Q_Learning_main/environments/sumo/networks/3x3/3x3.net.xml"/>
    </input>

    <output>
        <output-file value="/home/fazel/Adaptive_Routing_W_Q_Learning_main/environments/sumo/networks/3x3/3x3.net.xml"/>
    </output>

    <processing>
        <geometry.min-radius.fix.railways value="false"/>
        <geometry.max-grade.fix value="false"/>
        <offset.disable-normalization value="true"/>
        <lefthand value="false"/>
    </processing>

    <junctions>
        <no-turnarounds value="true"/>
        <junctions.corner-detail value="5"/>
        <junctions.limit-turn-speed value="5.5"/>
        <rectangular-lane-cut value="false"/>
    </junctions>

    <pedestrian>
        <walkingareas value="false"/>
    </pedestrian>

    <netedit>
        <additional-files value="/home/fazel/Adaptive_Routing_W_Q_Learning_main/environments/sumo/networks/3x3/3x3.net.xml"/>
    </netedit>

    <report>
        <aggregate-warnings value="5"/>
    </report>

</configuration>
-->

<net version="1.9" junctionCornerDetail="5" limitTurnSpeed="5.50" xmlns:xsi="http://www.w3.org/2001/XMLSchema-instance" xsi:noNamespaceSchemaLocation="http://sumo.dlr.de/xsd/net_file.xsd">

    <location netOffset="0.00,0.00" convBoundary="-200.00,0.00,400.00,400.00" origBoundary="-10000000000.00,-10000000000.00,10000000000.00,10000000000.00" projParameter="!"/>

    <edge id=":gneJ0_0" function="internal">
        <lane id=":gneJ0_0_0" index="0" speed="8.00" length="5.93" shape="-92.80,401.60 -96.65,401.05 -98.40,400.00"/>
    </edge>
    <edge id=":gneJ0_1" function="internal">
        <lane id=":gneJ0_1_0" index="0" speed="3.65" length="2.34" shape="-92.80,401.60 -94.00,400.80 -94.40,400.00"/>
    </edge>
    <edge id=":gneJ0_6" function="internal">
        <lane id=":gneJ0_6_0" index="0" speed="8.00" length="8.26" shape="-98.40,400.00 -99.40,399.40 -101.05,396.65 -101.60,392.80"/>
    </edge>
    <edge id=":gneJ0_7" function="internal">
        <lane id=":gneJ0_7_0" index="0" speed="3.65" length="2.34" shape="-94.40,400.00 -94.00,399.20 -92.80,398.40"/>
    </edge>
    <edge id=":gneJ0_2" function="internal">
        <lane id=":gneJ0_2_0" index="0" speed="6.51" length="9.03" shape="-98.40,392.80 -98.05,395.25 -97.00,397.00 -95.25,398.05 -92.80,398.40"/>
    </edge>
    <edge id=":gneJ0_3" function="internal">
        <lane id=":gneJ0_3_0" index="0" speed="3.65" length="4.67" shape="-98.40,392.80 -99.20,394.00 -100.00,394.40 -100.80,394.00 -101.60,392.80"/>
    </edge>
    <edge id=":gneJ0_4" function="internal">
        <lane id=":gneJ0_4_0" index="0" speed="6.51" length="9.03" shape="-107.20,398.40 -104.75,398.05 -103.00,397.00 -101.95,395.25 -101.60,392.80"/>
    </edge>
    <edge id=":gneJ0_5" function="internal">
        <lane id=":gneJ0_5_0" index="0" speed="13.89" length="14.40" shape="-107.20,398.40 -92.80,398.40"/>
    </edge>
    <edge id=":gneJ1_0" function="internal">
        <lane id=":gneJ1_0_0" index="0" speed="13.89" length="14.40" shape="107.20,401.60 92.80,401.60"/>
    </edge>
    <edge id=":gneJ1_1" function="internal">
        <lane id=":gneJ1_1_0" index="0" speed="8.00" length="5.93" shape="107.20,401.60 103.35,401.05 101.60,400.00"/>
    </edge>
    <edge id=":gneJ1_2" function="internal">
        <lane id=":gneJ1_2_0" index="0" speed="3.65" length="2.34" shape="107.20,401.60 106.00,400.80 105.60,400.00"/>
    </edge>
    <edge id=":gneJ1_9" function="internal">
        <lane id=":gneJ1_9_0" index="0" speed="8.00" length="8.26" shape="101.60,400.00 100.60,399.40 98.95,396.65 98.40,392.80"/>
    </edge>
    <edge id=":gneJ1_10" function="internal">
        <lane id=":gneJ1_10_0" index="0" speed="3.65" length="2.34" shape="105.60,400.00 106.00,399.20 107.20,398.40"/>
    </edge>
    <edge id=":gneJ1_3" function="internal">
        <lane id=":gneJ1_3_0" index="0" speed="6.51" length="9.03" shape="101.60,392.80 101.95,395.25 103.00,397.00 104.75,398.05 107.20,398.40"/>
    </edge>
    <edge id=":gneJ1_4" function="internal">
        <lane id=":gneJ1_4_0" index="0" speed="8.00" length="14.19" shape="101.60,392.80 101.05,396.65 99.40,399.40 96.65,401.05 92.80,401.60"/>
    </edge>
    <edge id=":gneJ1_5" function="internal">
        <lane id=":gneJ1_5_0" index="0" speed="3.65" length="4.67" shape="101.60,392.80 100.80,394.00 100.00,394.40 99.20,394.00 98.40,392.80"/>
    </edge>
    <edge id=":gneJ1_6" function="internal">
        <lane id=":gneJ1_6_0" index="0" speed="6.51" length="9.03" shape="92.80,398.40 95.25,398.05 97.00,397.00 98.05,395.25 98.40,392.80"/>
    </edge>
    <edge id=":gneJ1_7" function="internal">
        <lane id=":gneJ1_7_0" index="0" speed="13.89" length="14.40" shape="92.80,398.40 107.20,398.40"/>
    </edge>
    <edge id=":gneJ1_8" function="internal">
        <lane id=":gneJ1_8_0" index="0" speed="3.65" length="2.34" shape="92.80,398.40 94.00,399.20 94.40,400.00"/>
    </edge>
    <edge id=":gneJ1_11" function="internal">
        <lane id=":gneJ1_11_0" index="0" speed="3.65" length="2.34" shape="94.40,400.00 94.00,400.80 92.80,401.60"/>
    </edge>
    <edge id=":gneJ10_0" function="internal">
        <lane id=":gneJ10_0_0" index="0" speed="6.51" length="9.03" shape="298.40,7.20 298.05,4.75 297.00,3.00 295.25,1.95 292.80,1.60"/>
    </edge>
    <edge id=":gneJ10_1" function="internal">
        <lane id=":gneJ10_1_0" index="0" speed="8.00" length="14.19" shape="298.40,7.20 298.95,3.35 300.60,0.60 303.35,-1.05 307.20,-1.60"/>
    </edge>
    <edge id=":gneJ10_2" function="internal">
        <lane id=":gneJ10_2_0" index="0" speed="3.65" length="4.67" shape="298.40,7.20 299.20,6.00 300.00,5.60 300.80,6.00 301.60,7.20"/>
    </edge>
    <edge id=":gneJ10_3" function="internal">
        <lane id=":gneJ10_3_0" index="0" speed="6.51" length="9.03" shape="307.20,1.60 304.75,1.95 303.00,3.00 301.95,4.75 301.60,7.20"/>
    </edge>
    <edge id=":gneJ10_4" function="internal">
        <lane id=":gneJ10_4_0" index="0" speed="13.89" length="14.40" shape="307.20,1.60 292.80,1.60"/>
    </edge>
    <edge id=":gneJ10_5" function="internal">
        <lane id=":gneJ10_5_0" index="0" speed="3.65" length="2.34" shape="307.20,1.60 306.00,0.80 305.60,0.00"/>
    </edge>
    <edge id=":gneJ10_9" function="internal">
        <lane id=":gneJ10_9_0" index="0" speed="3.65" length="2.34" shape="305.60,0.00 306.00,-0.80 307.20,-1.60"/>
    </edge>
    <edge id=":gneJ10_6" function="internal">
        <lane id=":gneJ10_6_0" index="0" speed="13.89" length="14.40" shape="292.80,-1.60 307.20,-1.60"/>
    </edge>
    <edge id=":gneJ10_7" function="internal">
        <lane id=":gneJ10_7_0" index="0" speed="8.00" length="5.93" shape="292.80,-1.60 296.65,-1.05 298.40,-0.00"/>
    </edge>
    <edge id=":gneJ10_8" function="internal">
        <lane id=":gneJ10_8_0" index="0" speed="3.65" length="2.34" shape="292.80,-1.60 294.00,-0.80 294.40,0.00"/>
    </edge>
    <edge id=":gneJ10_10" function="internal">
        <lane id=":gneJ10_10_0" index="0" speed="8.00" length="8.26" shape="298.40,-0.00 299.40,0.60 301.05,3.35 301.60,7.20"/>
    </edge>
    <edge id=":gneJ10_11" function="internal">
        <lane id=":gneJ10_11_0" index="0" speed="3.65" length="2.34" shape="294.40,0.00 294.00,0.80 292.80,1.60"/>
    </edge>
    <edge id=":gneJ11_0" function="internal">
        <lane id=":gneJ11_0_0" index="0" speed="6.51" length="9.03" shape="98.40,207.20 98.05,204.75 97.00,203.00 95.25,201.95 92.80,201.60"/>
    </edge>
    <edge id=":gneJ11_1" function="internal">
        <lane id=":gneJ11_1_0" index="0" speed="13.89" length="14.40" shape="98.40,207.20 98.40,192.80"/>
    </edge>
    <edge id=":gneJ11_2" function="internal">
        <lane id=":gneJ11_2_0" index="0" speed="8.00" length="5.93" shape="98.40,207.20 98.95,203.35 100.00,201.60"/>
    </edge>
    <edge id=":gneJ11_3" function="internal">
        <lane id=":gneJ11_3_0" index="0" speed="3.65" length="2.34" shape="98.40,207.20 99.20,206.00 100.00,205.60"/>
    </edge>
    <edge id=":gneJ11_15" function="internal">
        <lane id=":gneJ11_15_0" index="0" speed="8.00" length="8.26" shape="100.00,201.60 100.60,200.60 103.35,198.95 107.20,198.40"/>
    </edge>
    <edge id=":gneJ11_16" function="internal">
        <lane id=":gneJ11_16_0" index="0" speed="3.65" length="2.34" shape="100.00,205.60 100.80,206.00 101.60,207.20"/>
    </edge>
    <edge id=":gneJ11_4" function="internal">
        <lane id=":gneJ11_4_0" index="0" speed="6.51" length="9.03" shape="107.20,201.60 104.75,201.95 103.00,203.00 101.95,204.75 101.60,207.20"/>
    </edge>
    <edge id=":gneJ11_5" function="internal">
        <lane id=":gneJ11_5_0" index="0" speed="13.89" length="14.40" shape="107.20,201.60 92.80,201.60"/>
    </edge>
    <edge id=":gneJ11_6" function="internal">
        <lane id=":gneJ11_6_0" index="0" speed="8.00" length="14.19" shape="107.20,201.60 103.35,201.05 100.60,199.40 98.95,196.65 98.40,192.80"/>
    </edge>
    <edge id=":gneJ11_7" function="internal">
        <lane id=":gneJ11_7_0" index="0" speed="3.65" length="4.67" shape="107.20,201.60 106.00,200.80 105.60,200.00 106.00,199.20 107.20,198.40"/>
    </edge>
    <edge id=":gneJ11_8" function="internal">
        <lane id=":gneJ11_8_0" index="0" speed="6.51" length="9.03" shape="101.60,192.80 101.95,195.25 103.00,197.00 104.75,198.05 107.20,198.40"/>
    </edge>
    <edge id=":gneJ11_9" function="internal">
        <lane id=":gneJ11_9_0" index="0" speed="13.89" length="14.40" shape="101.60,192.80 101.60,207.20"/>
    </edge>
    <edge id=":gneJ11_10" function="internal">
        <lane id=":gneJ11_10_0" index="0" speed="8.00" length="5.93" shape="101.60,192.80 101.05,196.65 100.00,198.40"/>
    </edge>
    <edge id=":gneJ11_11" function="internal">
        <lane id=":gneJ11_11_0" index="0" speed="3.65" length="2.34" shape="101.60,192.80 100.80,194.00 100.00,194.40"/>
    </edge>
    <edge id=":gneJ11_17" function="internal">
        <lane id=":gneJ11_17_0" index="0" speed="8.00" length="8.26" shape="100.00,198.40 99.40,199.40 96.65,201.05 92.80,201.60"/>
    </edge>
    <edge id=":gneJ11_18" function="internal">
        <lane id=":gneJ11_18_0" index="0" speed="3.65" length="2.34" shape="100.00,194.40 99.20,194.00 98.40,192.80"/>
    </edge>
    <edge id=":gneJ11_12" function="internal">
        <lane id=":gneJ11_12_0" index="0" speed="6.51" length="9.03" shape="92.80,198.40 95.25,198.05 97.00,197.00 98.05,195.25 98.40,192.80"/>
    </edge>
    <edge id=":gneJ11_13" function="internal">
        <lane id=":gneJ11_13_0" index="0" speed="13.89" length="14.40" shape="92.80,198.40 107.20,198.40"/>
    </edge>
    <edge id=":gneJ11_14" function="internal">
        <lane id=":gneJ11_14_0" index="0" speed="8.00" length="14.19" shape="92.80,198.40 96.65,198.95 99.40,200.60 101.05,203.35 101.60,207.20"/>
    </edge>
    <edge id=":gneJ15_0" function="internal">
        <lane id=":gneJ15_0_0" index="0" speed="3.65" length="4.67" shape="400.00,398.40 401.20,399.20 401.60,400.00 401.20,400.80 400.00,401.60"/>
    </edge>
    <edge id=":gneJ16_0" function="internal">
        <lane id=":gneJ16_0_0" index="0" speed="3.65" length="4.67" shape="400.00,198.40 401.20,199.20 401.60,200.00 401.20,200.80 400.00,201.60"/>
    </edge>
    <edge id=":gneJ17_0" function="internal">
        <lane id=":gneJ17_0_0" index="0" speed="3.65" length="4.67" shape="400.00,-1.60 401.20,-0.80 401.60,0.00 401.20,0.80 400.00,1.60"/>
    </edge>
    <edge id=":gneJ2_0" function="internal">
        <lane id=":gneJ2_0_0" index="0" speed="13.89" length="14.40" shape="307.20,401.60 292.80,401.60"/>
    </edge>
    <edge id=":gneJ2_1" function="internal">
        <lane id=":gneJ2_1_0" index="0" speed="8.00" length="5.93" shape="307.20,401.60 303.35,401.05 301.60,400.00"/>
    </edge>
    <edge id=":gneJ2_2" function="internal">
        <lane id=":gneJ2_2_0" index="0" speed="3.65" length="2.34" shape="307.20,401.60 306.00,400.80 305.60,400.00"/>
    </edge>
    <edge id=":gneJ2_9" function="internal">
        <lane id=":gneJ2_9_0" index="0" speed="8.00" length="8.26" shape="301.60,400.00 300.60,399.40 298.95,396.65 298.40,392.80"/>
    </edge>
    <edge id=":gneJ2_10" function="internal">
        <lane id=":gneJ2_10_0" index="0" speed="3.65" length="2.34" shape="305.60,400.00 306.00,399.20 307.20,398.40"/>
    </edge>
    <edge id=":gneJ2_3" function="internal">
        <lane id=":gneJ2_3_0" index="0" speed="6.51" length="9.03" shape="301.60,392.80 301.95,395.25 303.00,397.00 304.75,398.05 307.20,398.40"/>
    </edge>
    <edge id=":gneJ2_4" function="internal">
        <lane id=":gneJ2_4_0" index="0" speed="8.00" length="14.19" shape="301.60,392.80 301.05,396.65 299.40,399.40 296.65,401.05 292.80,401.60"/>
    </edge>
    <edge id=":gneJ2_5" function="internal">
        <lane id=":gneJ2_5_0" index="0" speed="3.65" length="4.67" shape="301.60,392.80 300.80,394.00 300.00,394.40 299.20,394.00 298.40,392.80"/>
    </edge>
    <edge id=":gneJ2_6" function="internal">
        <lane id=":gneJ2_6_0" index="0" speed="6.51" length="9.03" shape="292.80,398.40 295.25,398.05 297.00,397.00 298.05,395.25 298.40,392.80"/>
    </edge>
    <edge id=":gneJ2_7" function="internal">
        <lane id=":gneJ2_7_0" index="0" speed="13.89" length="14.40" shape="292.80,398.40 307.20,398.40"/>
    </edge>
    <edge id=":gneJ2_8" function="internal">
        <lane id=":gneJ2_8_0" index="0" speed="3.65" length="2.34" shape="292.80,398.40 294.00,399.20 294.40,400.00"/>
    </edge>
    <edge id=":gneJ2_11" function="internal">
        <lane id=":gneJ2_11_0" index="0" speed="3.65" length="2.34" shape="294.40,400.00 294.00,400.80 292.80,401.60"/>
    </edge>
    <edge id=":gneJ3_0" function="internal">
        <lane id=":gneJ3_0_0" index="0" speed="6.51" length="9.03" shape="298.40,207.20 298.05,204.75 297.00,203.00 295.25,201.95 292.80,201.60"/>
    </edge>
    <edge id=":gneJ3_1" function="internal">
        <lane id=":gneJ3_1_0" index="0" speed="13.89" length="14.40" shape="298.40,207.20 298.40,192.80"/>
    </edge>
    <edge id=":gneJ3_2" function="internal">
        <lane id=":gneJ3_2_0" index="0" speed="8.00" length="5.93" shape="298.40,207.20 298.95,203.35 300.00,201.60"/>
    </edge>
    <edge id=":gneJ3_3" function="internal">
        <lane id=":gneJ3_3_0" index="0" speed="3.65" length="2.34" shape="298.40,207.20 299.20,206.00 300.00,205.60"/>
    </edge>
    <edge id=":gneJ3_16" function="internal">
        <lane id=":gneJ3_16_0" index="0" speed="8.00" length="8.26" shape="300.00,201.60 300.60,200.60 303.35,198.95 307.20,198.40"/>
    </edge>
    <edge id=":gneJ3_17" function="internal">
        <lane id=":gneJ3_17_0" index="0" speed="3.65" length="2.34" shape="300.00,205.60 300.80,206.00 301.60,207.20"/>
    </edge>
    <edge id=":gneJ3_4" function="internal">
        <lane id=":gneJ3_4_0" index="0" speed="6.51" length="9.03" shape="307.20,201.60 304.75,201.95 303.00,203.00 301.95,204.75 301.60,207.20"/>
    </edge>
    <edge id=":gneJ3_5" function="internal">
        <lane id=":gneJ3_5_0" index="0" speed="13.89" length="14.40" shape="307.20,201.60 292.80,201.60"/>
    </edge>
    <edge id=":gneJ3_6" function="internal">
        <lane id=":gneJ3_6_0" index="0" speed="8.00" length="14.19" shape="307.20,201.60 303.35,201.05 300.60,199.40 298.95,196.65 298.40,192.80"/>
    </edge>
    <edge id=":gneJ3_7" function="internal">
        <lane id=":gneJ3_7_0" index="0" speed="3.65" length="4.67" shape="307.20,201.60 306.00,200.80 305.60,200.00 306.00,199.20 307.20,198.40"/>
    </edge>
    <edge id=":gneJ3_8" function="internal">
        <lane id=":gneJ3_8_0" index="0" speed="6.51" length="9.03" shape="301.60,192.80 301.95,195.25 303.00,197.00 304.75,198.05 307.20,198.40"/>
    </edge>
    <edge id=":gneJ3_9" function="internal">
        <lane id=":gneJ3_9_0" index="0" speed="13.89" length="14.40" shape="301.60,192.80 301.60,207.20"/>
    </edge>
    <edge id=":gneJ3_10" function="internal">
        <lane id=":gneJ3_10_0" index="0" speed="8.00" length="5.93" shape="301.60,192.80 301.05,196.65 300.00,198.40"/>
    </edge>
    <edge id=":gneJ3_11" function="internal">
        <lane id=":gneJ3_11_0" index="0" speed="3.65" length="2.34" shape="301.60,192.80 300.80,194.00 300.00,194.40"/>
    </edge>
    <edge id=":gneJ3_18" function="internal">
        <lane id=":gneJ3_18_0" index="0" speed="8.00" length="8.26" shape="300.00,198.40 299.40,199.40 296.65,201.05 292.80,201.60"/>
    </edge>
    <edge id=":gneJ3_19" function="internal">
        <lane id=":gneJ3_19_0" index="0" speed="3.65" length="2.34" shape="300.00,194.40 299.20,194.00 298.40,192.80"/>
    </edge>
    <edge id=":gneJ3_12" function="internal">
        <lane id=":gneJ3_12_0" index="0" speed="6.51" length="9.03" shape="292.80,198.40 295.25,198.05 297.00,197.00 298.05,195.25 298.40,192.80"/>
    </edge>
    <edge id=":gneJ3_13" function="internal">
        <lane id=":gneJ3_13_0" index="0" speed="13.89" length="14.40" shape="292.80,198.40 307.20,198.40"/>
    </edge>
    <edge id=":gneJ3_14" function="internal">
        <lane id=":gneJ3_14_0" index="0" speed="8.00" length="14.19" shape="292.80,198.40 296.65,198.95 299.40,200.60 301.05,203.35 301.60,207.20"/>
    </edge>
    <edge id=":gneJ3_15" function="internal">
        <lane id=":gneJ3_15_0" index="0" speed="3.65" length="4.67" shape="292.80,198.40 294.00,199.20 294.40,200.00 294.00,200.80 292.80,201.60"/>
    </edge>
    <edge id=":gneJ7_0" function="internal">
        <lane id=":gneJ7_0_0" index="0" speed="13.89" length="14.40" shape="-101.60,207.20 -101.60,192.80"/>
    </edge>
    <edge id=":gneJ7_1" function="internal">
        <lane id=":gneJ7_1_0" index="0" speed="8.00" length="5.93" shape="-101.60,207.20 -101.05,203.35 -100.00,201.60"/>
    </edge>
    <edge id=":gneJ7_2" function="internal">
        <lane id=":gneJ7_2_0" index="0" speed="3.65" length="2.34" shape="-101.60,207.20 -100.80,206.00 -100.00,205.60"/>
    </edge>
    <edge id=":gneJ7_12" function="internal">
        <lane id=":gneJ7_12_0" index="0" speed="8.00" length="8.26" shape="-100.00,201.60 -99.40,200.60 -96.65,198.95 -92.80,198.40"/>
    </edge>
    <edge id=":gneJ7_13" function="internal">
        <lane id=":gneJ7_13_0" index="0" speed="3.65" length="2.34" shape="-100.00,205.60 -99.20,206.00 -98.40,207.20"/>
    </edge>
    <edge id=":gneJ7_3" function="internal">
        <lane id=":gneJ7_3_0" index="0" speed="6.51" length="9.03" shape="-92.80,201.60 -95.25,201.95 -97.00,203.00 -98.05,204.75 -98.40,207.20"/>
    </edge>
    <edge id=":gneJ7_4" function="internal">
        <lane id=":gneJ7_4_0" index="0" speed="8.00" length="14.19" shape="-92.80,201.60 -96.65,201.05 -99.40,199.40 -101.05,196.65 -101.60,192.80"/>
    </edge>
    <edge id=":gneJ7_5" function="internal">
        <lane id=":gneJ7_5_0" index="0" speed="3.65" length="4.67" shape="-92.80,201.60 -94.00,200.80 -94.40,200.00 -94.00,199.20 -92.80,198.40"/>
    </edge>
    <edge id=":gneJ7_6" function="internal">
        <lane id=":gneJ7_6_0" index="0" speed="6.51" length="9.03" shape="-98.40,192.80 -98.05,195.25 -97.00,197.00 -95.25,198.05 -92.80,198.40"/>
    </edge>
    <edge id=":gneJ7_7" function="internal">
        <lane id=":gneJ7_7_0" index="0" speed="13.89" length="14.40" shape="-98.40,192.80 -98.40,207.20"/>
    </edge>
    <edge id=":gneJ7_8" function="internal">
        <lane id=":gneJ7_8_0" index="0" speed="3.65" length="2.34" shape="-98.40,192.80 -99.20,194.00 -100.00,194.40"/>
    </edge>
    <edge id=":gneJ7_14" function="internal">
        <lane id=":gneJ7_14_0" index="0" speed="3.65" length="2.34" shape="-100.00,194.40 -100.80,194.00 -101.60,192.80"/>
    </edge>
    <edge id=":gneJ7_9" function="internal">
        <lane id=":gneJ7_9_0" index="0" speed="6.51" length="9.03" shape="-107.20,198.40 -104.75,198.05 -103.00,197.00 -101.95,195.25 -101.60,192.80"/>
    </edge>
    <edge id=":gneJ7_10" function="internal">
        <lane id=":gneJ7_10_0" index="0" speed="13.89" length="14.40" shape="-107.20,198.40 -92.80,198.40"/>
    </edge>
    <edge id=":gneJ7_11" function="internal">
        <lane id=":gneJ7_11_0" index="0" speed="8.00" length="14.19" shape="-107.20,198.40 -103.35,198.95 -100.60,200.60 -98.95,203.35 -98.40,207.20"/>
    </edge>
    <edge id=":gneJ8_0" function="internal">
        <lane id=":gneJ8_0_0" index="0" speed="8.00" length="14.19" shape="-101.60,7.20 -101.05,3.35 -99.40,0.60 -96.65,-1.05 -92.80,-1.60"/>
    </edge>
    <edge id=":gneJ8_1" function="internal">
        <lane id=":gneJ8_1_0" index="0" speed="3.65" length="4.67" shape="-101.60,7.20 -100.80,6.00 -100.00,5.60 -99.20,6.00 -98.40,7.20"/>
    </edge>
    <edge id=":gneJ8_2" function="internal">
        <lane id=":gneJ8_2_0" index="0" speed="6.51" length="9.03" shape="-92.80,1.60 -95.25,1.95 -97.00,3.00 -98.05,4.75 -98.40,7.20"/>
    </edge>
    <edge id=":gneJ8_3" function="internal">
        <lane id=":gneJ8_3_0" index="0" speed="3.65" length="2.34" shape="-92.80,1.60 -94.00,0.80 -94.40,0.00"/>
    </edge>
    <edge id=":gneJ8_6" function="internal">
        <lane id=":gneJ8_6_0" index="0" speed="3.65" length="2.34" shape="-94.40,0.00 -94.00,-0.80 -92.80,-1.60"/>
    </edge>
    <edge id=":gneJ8_4" function="internal">
        <lane id=":gneJ8_4_0" index="0" speed="13.89" length="14.40" shape="-107.20,-1.60 -92.80,-1.60"/>
    </edge>
    <edge id=":gneJ8_5" function="internal">
        <lane id=":gneJ8_5_0" index="0" speed="8.00" length="10.18" shape="-107.20,-1.60 -103.35,-1.05 -100.60,0.60 -99.01,3.25"/>
    </edge>
    <edge id=":gneJ8_7" function="internal">
        <lane id=":gneJ8_7_0" index="0" speed="8.00" length="4.01" shape="-99.01,3.25 -98.95,3.35 -98.40,7.20"/>
    </edge>
    <edge id=":gneJ9_0" function="internal">
        <lane id=":gneJ9_0_0" index="0" speed="6.51" length="9.03" shape="98.40,7.20 98.05,4.75 97.00,3.00 95.25,1.95 92.80,1.60"/>
    </edge>
    <edge id=":gneJ9_1" function="internal">
        <lane id=":gneJ9_1_0" index="0" speed="8.00" length="14.19" shape="98.40,7.20 98.95,3.35 100.60,0.60 103.35,-1.05 107.20,-1.60"/>
    </edge>
    <edge id=":gneJ9_2" function="internal">
        <lane id=":gneJ9_2_0" index="0" speed="3.65" length="4.67" shape="98.40,7.20 99.20,6.00 100.00,5.60 100.80,6.00 101.60,7.20"/>
    </edge>
    <edge id=":gneJ9_3" function="internal">
        <lane id=":gneJ9_3_0" index="0" speed="6.51" length="9.03" shape="107.20,1.60 104.75,1.95 103.00,3.00 101.95,4.75 101.60,7.20"/>
    </edge>
    <edge id=":gneJ9_4" function="internal">
        <lane id=":gneJ9_4_0" index="0" speed="13.89" length="14.40" shape="107.20,1.60 92.80,1.60"/>
    </edge>
    <edge id=":gneJ9_5" function="internal">
        <lane id=":gneJ9_5_0" index="0" speed="3.65" length="2.34" shape="107.20,1.60 106.00,0.80 105.60,0.00"/>
    </edge>
    <edge id=":gneJ9_9" function="internal">
        <lane id=":gneJ9_9_0" index="0" speed="3.65" length="2.34" shape="105.60,0.00 106.00,-0.80 107.20,-1.60"/>
    </edge>
    <edge id=":gneJ9_6" function="internal">
        <lane id=":gneJ9_6_0" index="0" speed="13.89" length="14.40" shape="92.80,-1.60 107.20,-1.60"/>
    </edge>
    <edge id=":gneJ9_7" function="internal">
        <lane id=":gneJ9_7_0" index="0" speed="8.00" length="5.93" shape="92.80,-1.60 96.65,-1.05 98.40,0.00"/>
    </edge>
    <edge id=":gneJ9_8" function="internal">
        <lane id=":gneJ9_8_0" index="0" speed="3.65" length="2.34" shape="92.80,-1.60 94.00,-0.80 94.40,0.00"/>
    </edge>
    <edge id=":gneJ9_10" function="internal">
        <lane id=":gneJ9_10_0" index="0" speed="8.00" length="8.26" shape="98.40,0.00 99.40,0.60 101.05,3.35 101.60,7.20"/>
    </edge>
    <edge id=":gneJ9_11" function="internal">
        <lane id=":gneJ9_11_0" index="0" speed="3.65" length="2.34" shape="94.40,0.00 94.00,0.80 92.80,1.60"/>
    </edge>

    <edge id="-gneE0" from="gneJ1" to="gneJ0" priority="-1">
        <lane id="-gneE0_0" index="0" speed="13.89" length="185.60" shape="92.80,401.60 -92.80,401.60"/>
    </edge>
    <edge id="-gneE1" from="gneJ2" to="gneJ1" priority="-1">
        <lane id="-gneE1_0" index="0" speed="13.89" length="185.60" shape="292.80,401.60 107.20,401.60"/>
    </edge>
    <edge id="-gneE10" from="gneJ3" to="gneJ10" priority="-1">
        <lane id="-gneE10_0" index="0" speed="13.89" length="185.60" shape="298.40,192.80 298.40,7.20"/>
    </edge>
    <edge id="-gneE11" from="gneJ11" to="gneJ3" priority="-1">
        <lane id="-gneE11_0" index="0" speed="13.89" length="185.60" shape="107.20,198.40 292.80,198.40"/>
    </edge>
    <edge id="-gneE12" from="gneJ9" to="gneJ11" priority="-1">
        <lane id="-gneE12_0" index="0" speed="13.89" length="185.60" shape="101.60,7.20 101.60,192.80"/>
    </edge>
    <edge id="-gneE13" from="gneJ11" to="gneJ7" priority="-1">
        <lane id="-gneE13_0" index="0" speed="13.89" length="185.60" shape="92.80,201.60 -92.80,201.60"/>
    </edge>
    <edge id="-gneE14" from="gneJ1" to="gneJ11" priority="-1">
        <lane id="-gneE14_0" index="0" speed="13.89" length="185.60" shape="98.40,392.80 98.40,207.20"/>
    </edge>
    <edge id="-gneE18" from="gneJ15" to="gneJ2" priority="-1">
        <lane id="-gneE18_0" index="0" speed="13.89" length="92.80" shape="400.00,401.60 307.20,401.60"/>
    </edge>
    <edge id="-gneE19" from="gneJ16" to="gneJ3" priority="-1">
        <lane id="-gneE19_0" index="0" speed="13.89" length="92.80" shape="400.00,201.60 307.20,201.60"/>
    </edge>
    <edge id="-gneE2" from="gneJ3" to="gneJ2" priority="-1">
        <lane id="-gneE2_0" index="0" speed="13.89" length="185.60" shape="301.60,207.20 301.60,392.80"/>
    </edge>
    <edge id="-gneE20" from="gneJ17" to="gneJ10" priority="-1">
        <lane id="-gneE20_0" index="0" speed="13.89" length="92.80" shape="400.00,1.60 307.20,1.60"/>
    </edge>
    <edge id="-gneE6" from="gneJ7" to="gneJ0" priority="-1">
        <lane id="-gneE6_0" index="0" speed="13.89" length="185.60" shape="-98.40,207.20 -98.40,392.80"/>
    </edge>
    <edge id="-gneE7" from="gneJ8" to="gneJ7" priority="-1">
        <lane id="-gneE7_0" index="0" speed="13.89" length="185.60" shape="-98.40,7.20 -98.40,192.80"/>
    </edge>
    <edge id="-gneE8" from="gneJ9" to="gneJ8" priority="-1">
        <lane id="-gneE8_0" index="0" speed="13.89" length="185.60" shape="92.80,1.60 -92.80,1.60"/>
    </edge>
    <edge id="-gneE9" from="gneJ10" to="gneJ9" priority="-1">
        <lane id="-gneE9_0" index="0" speed="13.89" length="185.60" shape="292.80,1.60 107.20,1.60"/>
    </edge>
    <edge id="gneE0" from="gneJ0" to="gneJ1" priority="-1">
        <lane id="gneE0_0" index="0" speed="13.89" length="185.60" shape="-92.80,398.40 92.80,398.40"/>
    </edge>
    <edge id="gneE1" from="gneJ1" to="gneJ2" priority="-1">
        <lane id="gneE1_0" index="0" speed="13.89" length="185.60" shape="107.20,398.40 292.80,398.40"/>
    </edge>
    <edge id="gneE10" from="gneJ10" to="gneJ3" priority="-1">
        <lane id="gneE10_0" index="0" speed="13.89" length="185.60" shape="301.60,7.20 301.60,192.80"/>
    </edge>
    <edge id="gneE11" from="gneJ3" to="gneJ11" priority="-1">
        <lane id="gneE11_0" index="0" speed="13.89" length="185.60" shape="292.80,201.60 107.20,201.60"/>
    </edge>
    <edge id="gneE12" from="gneJ11" to="gneJ9" priority="-1">
        <lane id="gneE12_0" index="0" speed="13.89" length="185.60" shape="98.40,192.80 98.40,7.20"/>
    </edge>
    <edge id="gneE13" from="gneJ7" to="gneJ11" priority="-1">
        <lane id="gneE13_0" index="0" speed="13.89" length="185.60" shape="-92.80,198.40 92.80,198.40"/>
    </edge>
    <edge id="gneE14" from="gneJ11" to="gneJ1" priority="-1">
        <lane id="gneE14_0" index="0" speed="13.89" length="185.60" shape="101.60,207.20 101.60,392.80"/>
    </edge>
    <edge id="gneE15" from="gneJ12" to="gneJ0" priority="-1">
        <lane id="gneE15_0" index="0" speed="13.89" length="92.80" shape="-200.00,398.40 -107.20,398.40"/>
    </edge>
    <edge id="gneE16" from="gneJ13" to="gneJ7" priority="-1">
        <lane id="gneE16_0" index="0" speed="13.89" length="92.80" shape="-200.00,198.40 -107.20,198.40"/>
    </edge>
    <edge id="gneE17" from="gneJ14" to="gneJ8" priority="-1">
        <lane id="gneE17_0" index="0" speed="13.89" length="92.80" shape="-200.00,-1.60 -107.20,-1.60"/>
    </edge>
    <edge id="gneE18" from="gneJ2" to="gneJ15" priority="-1">
        <lane id="gneE18_0" index="0" speed="13.89" length="92.80" shape="307.20,398.40 400.00,398.40"/>
    </edge>
    <edge id="gneE19" from="gneJ3" to="gneJ16" priority="-1">
        <lane id="gneE19_0" index="0" speed="13.89" length="92.80" shape="307.20,198.40 400.00,198.40"/>
    </edge>
    <edge id="gneE2" from="gneJ2" to="gneJ3" priority="-1">
        <lane id="gneE2_0" index="0" speed="13.89" length="185.60" shape="298.40,392.80 298.40,207.20"/>
    </edge>
    <edge id="gneE20" from="gneJ10" to="gneJ17" priority="-1">
        <lane id="gneE20_0" index="0" speed="13.89" length="92.80" shape="307.20,-1.60 400.00,-1.60"/>
    </edge>
    <edge id="gneE6" from="gneJ0" to="gneJ7" priority="-1">
        <lane id="gneE6_0" index="0" speed="13.89" length="185.60" shape="-101.60,392.80 -101.60,207.20"/>
    </edge>
    <edge id="gneE7" from="gneJ7" to="gneJ8" priority="-1">
        <lane id="gneE7_0" index="0" speed="13.89" length="185.60" shape="-101.60,192.80 -101.60,7.20"/>
    </edge>
    <edge id="gneE8" from="gneJ8" to="gneJ9" priority="-1">
        <lane id="gneE8_0" index="0" speed="13.89" length="185.60" shape="-92.80,-1.60 92.80,-1.60"/>
    </edge>
    <edge id="gneE9" from="gneJ9" to="gneJ10" priority="-1">
        <lane id="gneE9_0" index="0" speed="13.89" length="185.60" shape="107.20,-1.60 292.80,-1.60"/>
    </edge>
