<?xml version="1.0" encoding="UTF-8"?>

<!-- generated on 2021-07-06 15:08:32 by Eclipse SUMO netedit Version 1.9.2
<configuration xmlns:xsi="http://www.w3.org/2001/XMLSchema-instance" xsi:noNamespaceSchemaLocation="http://sumo.dlr.de/xsd/netconvertConfiguration.xsd">

    <input>
        <sumo-net-file value="/home/fazel/Adaptive_Routing_W_Q_Learning_main/environments/sumo/networks/3x3/3x3.net.xml"/>
    </input>

    <output>
        <output-file value="/home/fazel/Adaptive_Routing_W_Q_Learning_main/environments/sumo/networks/3x3/3x3.net.xml"/>
    </output>

    <processing>
        <geometry.min-radius.fix.railways value="false"/>
        <geometry.max-grade.fix value="false"/>
        <offset.disable-normalization value="true"/>
        <lefthand value="false"/>
    </processing>

    <junctions>
        <no-turnarounds value="true"/>
        <junctions.corner-detail value="5"/>
        <junctions.limit-turn-speed value="5.5"/>
        <rectangular-lane-cut value="false"/>
    </junctions>

    <pedestrian>
        <walkingareas value="false"/>
    </pedestrian>

    <netedit>
        <additional-files value="/home/fazel/Adaptive_Routing_W_Q_Learning_main/environments/sumo/networks/3x3/3x3_additional.add.xml"/>
    </netedit>

    <report>
        <aggregate-warnings value="5"/>
    </report>

</configuration>
-->

<additional xmlns:xsi="http://www.w3.org/2001/XMLSchema-instance" xsi:noNamespaceSchemaLocation="http://sumo.dlr.de/xsd/additional_file.xsd">
    <e1Detector id="e1Detector_-gneE0_0_3" lane="-gneE0_0" pos="155.00" freq="1" file="e1Detector_-gneE0_0_3.xml"/>
    <e1Detector id="e1Detector_-gneE10_0_18" lane="-gneE10_0" pos="155.00" freq="1" file="e1Detector_-gneE10_0_18.xml"/>
    <e1Detector id="e1Detector_-gneE11_0_22" lane="-gneE11_0" pos="155.00" freq="1" file="e1Detector_-gneE11_0_22.xml"/>
    <e1Detector id="e1Detector_-gneE12_0_14" lane="-gneE12_0" pos="155.00" freq="1" file="e1Detector_-gneE12_0_14.xml"/>
    <e1Detector id="e1Detector_-gneE13_0_7" lane="-gneE13_0" pos="155.00" freq="1" file="e1Detector_-gneE13_0_7.xml"/>
    <e1Detector id="e1Detector_-gneE14_0_16" lane="-gneE14_0" pos="155.00" freq="1" file="e1Detector_-gneE14_0_16.xml"/>
    <e1Detector id="e1Detector_-gneE18_0_28" lane="-gneE18_0" pos="70" freq="1" file="e1Detector_-gneE18_0_28.xml"/>
    <e1Detector id="e1Detector_-gneE19_0_24" lane="-gneE19_0" pos="70" freq="1" file="e1Detector_-gneE19_0_24.xml"/>
    <e1Detector id="e1Detector_-gneE1_0_31" lane="-gneE1_0" pos="155.00" freq="1" file="e1Detector_-gneE1_0_31.xml"/>
    <e1Detector id="e1Detector_-gneE20_0_19" lane="-gneE20_0" pos="70" freq="1" file="e1Detector_-gneE20_0_19.xml"/>
    <e1Detector id="e1Detector_-gneE2_0_26" lane="-gneE2_0" pos="155.00" freq="1" file="e1Detector_-gneE2_0_26.xml"/>
    <e1Detector id="e1Detector_-gneE6_0_4" lane="-gneE6_0" pos="155.00" freq="1" file="e1Detector_-gneE6_0_4.xml"/>
    <e1Detector id="e1Detector_-gneE7_0_6" lane="-gneE7_0" pos="155.00" freq="1" file="e1Detector_-gneE7_0_6.xml"/>
    <e1Detector id="e1Detector_-gneE8_0_8" lane="-gneE8_0" pos="155.00" freq="1" file="e1Detector_-gneE8_0_8.xml"/>
    <e1Detector id="e1Detector_-gneE9_0_12" lane="-gneE9_0" pos="155.00" freq="1" file="e1Detector_-gneE9_0_12.xml"/>
    <e1Detector id="e1Detector_gneE0_0_32" lane="gneE0_0" pos="155.00" freq="1" file="e1Detector_gneE0_0_32.xml"/>
    <e1Detector id="e1Detector_gneE10_0_21" lane="gneE10_0" pos="155.00" freq="1" file="e1Detector_gneE10_0_21.xml"/>
    <e1Detector id="e1Detector_gneE11_0_15" lane="gneE11_0" pos="155.00" freq="1" file="e1Detector_gneE11_0_15.xml"/>
    <e1Detector id="e1Detector_gneE12_0_11" lane="gneE12_0" pos="155.00" freq="1" file="e1Detector_gneE12_0_11.xml"/>
    <e1Detector id="e1Detector_gneE13_0_13" lane="gneE13_0" pos="155.00" freq="1" file="e1Detector_gneE13_0_13.xml"/>
    <e1Detector id="e1Detector_gneE14_0_30" lane="gneE14_0" pos="155.00" freq="1" file="e1Detector_gneE14_0_30.xml"/>
    <e1Detector id="e1Detector_gneE15_0_1" lane="gneE15_0" pos="70.00" freq="1" file="e1Detector_gneE15_0_1.xml"/>
    <e1Detector id="e1Detector_gneE16_0_0" lane="gneE16_0" pos="70.00" freq="1" file="e1Detector_gneE16_0_0.xml"/>
    <e1Detector id="e1Detector_gneE17_0_2" lane="gneE17_0" pos="70.00" freq="1" file="e1Detector_gneE17_0_2.xml"/>
    <e1Detector id="e1Detector_gneE18_0_29" lane="gneE18_0" pos="70" freq="1" file="e1Detector_gneE18_0_29.xml"/>
    <e1Detector id="e1Detector_gneE19_0_25" lane="gneE19_0" pos="70" freq="1" file="e1Detector_gneE19_0_25.xml"/>
    <e1Detector id="e1Detector_gneE1_0_27" lane="gneE1_0" pos="155.00" freq="1" file="e1Detector_gneE1_0_27.xml"/>
    <e1Detector id="e1Detector_gneE20_0_20" lane="gneE20_0" pos="70" freq="1" file="e1Detector_gneE20_0_20.xml"/>
    <e1Detector id="e1Detector_gneE2_0_23" lane="gneE2_0" pos="155.00" freq="1" file="e1Detector_gneE2_0_23.xml"/>
    <e1Detector id="e1Detector_gneE6_0_5" lane="gneE6_0" pos="155.00" freq="1" file="e1Detector_gneE6_0_5.xml"/>
    <e1Detector id="e1Detector_gneE7_0_9" lane="gneE7_0" pos="155.00" freq="1" file="e1Detector_gneE7_0_9.xml"/>
    <e1Detector id="e1Detector_gneE8_0_10" lane="gneE8_0" pos="155.00" freq="1" file="e1Detector_gneE8_0_10.xml"/>
    <e1Detector id="e1Detector_gneE9_0_17" lane="gneE9_0" pos="155.00" freq="1" file="e1Detector_gneE9_0_17.xml"/>
</additional>
