<?xml version="1.0" encoding="UTF-8"?>

<!-- generated on 2021-07-12 23:15:48 by Eclipse SUMO netedit Version 1.9.2
<configuration xmlns:xsi="http://www.w3.org/2001/XMLSchema-instance" xsi:noNamespaceSchemaLocation="http://sumo.dlr.de/xsd/netconvertConfiguration.xsd">

    <input>
        <sumo-net-file value="/home/fazel/Adaptive_Routing_W_Q_Learning_main/environments/sumo/networks/3x3/3x4.net.xml"/>
    </input>

    <output>
        <output-file value="/home/fazel/Adaptive_Routing_W_Q_Learning_main/environments/sumo/networks/3x3/3x4.net.xml"/>
    </output>

    <processing>
        <geometry.min-radius.fix.railways value="false"/>
        <geometry.max-grade.fix value="false"/>
        <offset.disable-normalization value="true"/>
        <lefthand value="false"/>
    </processing>

    <junctions>
        <no-turnarounds value="true"/>
        <junctions.corner-detail value="5"/>
        <junctions.limit-turn-speed value="5.5"/>
        <rectangular-lane-cut value="false"/>
    </junctions>

    <pedestrian>
        <walkingareas value="false"/>
    </pedestrian>

    <netedit>
        <additional-files value="/home/fazel/Adaptive_Routing_W_Q_Learning_main/environments/sumo/networks/3x3/3x4_additional.add.xml"/>
    </netedit>

    <report>
        <aggregate-warnings value="5"/>
    </report>

</configuration>
-->

<additional xmlns:xsi="http://www.w3.org/2001/XMLSchema-instance" xsi:noNamespaceSchemaLocation="http://sumo.dlr.de/xsd/additional_file.xsd">
    <e1Detector id="e1Detector_-gneE0_0_1" lane="-gneE0_0" pos="70.00" freq="900.00" file="e1Detector_-gneE0_0_1.xml"/>
    <e1Detector id="e1Detector_-gneE10_0_34" lane="-gneE10_0" pos="70.00" freq="900.00" file="e1Detector_-gneE10_0_34.xml"/>
    <e1Detector id="e1Detector_-gneE11_0_14" lane="-gneE11_0" pos="70.00" freq="900.00" file="e1Detector_-gneE11_0_14.xml"/>
    <e1Detector id="e1Detector_-gneE12_0_31" lane="-gneE12_0" pos="70.00" freq="900.00" file="e1Detector_-gneE12_0_31.xml"/>
    <e1Detector id="e1Detector_-gneE13_0_27" lane="-gneE13_0" pos="70.00" freq="900.00" file="e1Detector_-gneE13_0_27.xml"/>
    <e1Detector id="e1Detector_-gneE14_0_25" lane="-gneE14_0" pos="70.00" freq="900.00" file="e1Detector_-gneE14_0_25.xml"/>
    <e1Detector id="e1Detector_-gneE18_0_23" lane="-gneE18_0" pos="70.00" freq="900.00" file="e1Detector_-gneE18_0_23.xml"/>
    <e1Detector id="e1Detector_-gneE1_0_3" lane="-gneE1_0" pos="70.00" freq="900.00" file="e1Detector_-gneE1_0_3.xml"/>
    <e1Detector id="e1Detector_-gneE20_0_20" lane="-gneE20_0" pos="70.00" freq="900.00" file="e1Detector_-gneE20_0_20.xml"/>
    <e1Detector id="e1Detector_-gneE22_0_41" lane="-gneE22_0" pos="120.00" freq="900.00" file="e1Detector_-gneE22_0_41.xml"/>
    <e1Detector id="e1Detector_-gneE23_0_32" lane="-gneE23_0" pos="70.00" freq="900.00" file="e1Detector_-gneE23_0_32.xml"/>
    <e1Detector id="e1Detector_-gneE24_0_40" lane="-gneE24_0" pos="120.00" freq="900.00" file="e1Detector_-gneE24_0_40.xml"/>
    <e1Detector id="e1Detector_-gneE2_0_5" lane="-gneE2_0" pos="70.00" freq="900.00" file="e1Detector_-gneE2_0_5.xml"/>
    <e1Detector id="e1Detector_-gneE3_0_6" lane="-gneE3_0" pos="70.00" freq="900.00" file="e1Detector_-gneE3_0_6.xml"/>
    <e1Detector id="e1Detector_-gneE4_0_11" lane="-gneE4_0" pos="70.00" freq="900.00" file="e1Detector_-gneE4_0_11.xml"/>
    <e1Detector id="e1Detector_-gneE5_0_13" lane="-gneE5_0" pos="70.00" freq="900.00" file="e1Detector_-gneE5_0_13.xml"/>
    <e1Detector id="e1Detector_-gneE6_0_17" lane="-gneE6_0" pos="70.00" freq="900.00" file="e1Detector_-gneE6_0_17.xml"/>
    <e1Detector id="e1Detector_-gneE7_0_18" lane="-gneE7_0" pos="70.00" freq="900.00" file="e1Detector_-gneE7_0_18.xml"/>
    <e1Detector id="e1Detector_-gneE8_0_29" lane="-gneE8_0" pos="70.00" freq="900.00" file="e1Detector_-gneE8_0_29.xml"/>
    <e1Detector id="e1Detector_-gneE9_0_8" lane="-gneE9_0" pos="70.00" freq="900.00" file="e1Detector_-gneE9_0_8.xml"/>
    <e1Detector id="e1Detector_gneE0_0_0" lane="gneE0_0" pos="70.00" freq="900.00" file="e1Detector_gneE0_0_0.xml"/>
    <e1Detector id="e1Detector_gneE10_0_35" lane="gneE10_0" pos="70.00" freq="900.00" file="e1Detector_gneE10_0_35.xml"/>
    <e1Detector id="e1Detector_gneE11_0_15" lane="gneE11_0" pos="70.00" freq="900.00" file="e1Detector_gneE11_0_15.xml"/>
    <e1Detector id="e1Detector_gneE12_0_30" lane="gneE12_0" pos="70.00" freq="900.00" file="e1Detector_gneE12_0_30.xml"/>
    <e1Detector id="e1Detector_gneE13_0_26" lane="gneE13_0" pos="70.00" freq="900.00" file="e1Detector_gneE13_0_26.xml"/>
    <e1Detector id="e1Detector_gneE14_0_24" lane="gneE14_0" pos="70.00" freq="900.00" file="e1Detector_gneE14_0_24.xml"/>
    <e1Detector id="e1Detector_gneE15_0_37" lane="gneE15_0" pos="120.00" freq="900.00" file="e1Detector_gneE15_0_37.xml"/>
    <e1Detector id="e1Detector_gneE16_0_36" lane="gneE16_0" pos="70.00" freq="900.00" file="e1Detector_gneE16_0_36.xml"/>
    <e1Detector id="e1Detector_gneE17_0_38" lane="gneE17_0" pos="120.00" freq="900.00" file="e1Detector_gneE17_0_38.xml"/>
    <e1Detector id="e1Detector_gneE18_0_22" lane="gneE18_0" pos="70.00" freq="900.00" file="e1Detector_gneE18_0_22.xml"/>
    <e1Detector id="e1Detector_gneE1_0_2" lane="gneE1_0" pos="70.00" freq="900.00" file="e1Detector_gneE1_0_2.xml"/>
    <e1Detector id="e1Detector_gneE20_0_21" lane="gneE20_0" pos="70.00" freq="900.00" file="e1Detector_gneE20_0_21.xml"/>
    <e1Detector id="e1Detector_gneE22_0_42" lane="gneE22_0" pos="120.00" freq="900.00" file="e1Detector_gneE22_0_42.xml"/>
    <e1Detector id="e1Detector_gneE23_0_33" lane="gneE23_0" pos="70.00" freq="900.00" file="e1Detector_gneE23_0_33.xml"/>
    <e1Detector id="e1Detector_gneE24_0_39" lane="gneE24_0" pos="120.00" freq="900.00" file="e1Detector_gneE24_0_39.xml"/>
    <e1Detector id="e1Detector_gneE2_0_4" lane="gneE2_0" pos="70.00" freq="900.00" file="e1Detector_gneE2_0_4.xml"/>
    <e1Detector id="e1Detector_gneE3_0_7" lane="gneE3_0" pos="70.00" freq="900.00" file="e1Detector_gneE3_0_7.xml"/>
    <e1Detector id="e1Detector_gneE4_0_10" lane="gneE4_0" pos="70.00" freq="900.00" file="e1Detector_gneE4_0_10.xml"/>
    <e1Detector id="e1Detector_gneE5_0_12" lane="gneE5_0" pos="70.00" freq="900.00" file="e1Detector_gneE5_0_12.xml"/>
    <e1Detector id="e1Detector_gneE6_0_16" lane="gneE6_0" pos="70.00" freq="900.00" file="e1Detector_gneE6_0_16.xml"/>
    <e1Detector id="e1Detector_gneE7_0_19" lane="gneE7_0" pos="70.00" freq="900.00" file="e1Detector_gneE7_0_19.xml"/>
    <e1Detector id="e1Detector_gneE8_0_28" lane="gneE8_0" pos="70.00" freq="900.00" file="e1Detector_gneE8_0_28.xml"/>
    <e1Detector id="e1Detector_gneE9_0_9" lane="gneE9_0" pos="70.00" freq="900.00" file="e1Detector_gneE9_0_9.xml"/>
</additional>
