<?xml version="1.0" encoding="UTF-8"?>

<!-- generated on 2021-06-12 20:41:49 by Eclipse SUMO netedit Version 1.9.2
<configuration xmlns:xsi="http://www.w3.org/2001/XMLSchema-instance" xsi:noNamespaceSchemaLocation="http://sumo.dlr.de/xsd/netconvertConfiguration.xsd">

    <input>
        <sumo-net-file value="/home/kowareta/projects/fazel/Adaptive_Routing_W_Q_Learning/environments/sumo/networks/3x3/network.net.xml"/>
    </input>

    <output>
        <output-file value="/home/kowareta/projects/fazel/Adaptive_Routing_W_Q_Learning/environments/sumo/networks/3x3/network.net.xml"/>
    </output>

    <processing>
        <geometry.min-radius.fix.railways value="false"/>
        <geometry.max-grade.fix value="false"/>
        <offset.disable-normalization value="true"/>
        <lefthand value="false"/>
    </processing>

    <junctions>
        <no-turnarounds value="true"/>
        <junctions.corner-detail value="5"/>
        <junctions.limit-turn-speed value="5.5"/>
        <rectangular-lane-cut value="false"/>
    </junctions>

    <pedestrian>
        <walkingareas value="false"/>
    </pedestrian>

    <report>
        <aggregate-warnings value="5"/>
    </report>

</configuration>
-->

<net version="1.9" junctionCornerDetail="5" limitTurnSpeed="5.50" xmlns:xsi="http://www.w3.org/2001/XMLSchema-instance" xsi:noNamespaceSchemaLocation="http://sumo.dlr.de/xsd/net_file.xsd">

    <location netOffset="0.00,0.00" convBoundary="-200.00,-100.00,100.00,200.00" origBoundary="-10000000000.00,-10000000000.00,10000000000.00,10000000000.00" projParameter="!"/>

    <edge id=":gneJ20_0" function="internal">
        <lane id=":gneJ20_0_0" index="0" speed="6.51" length="9.03" shape="-101.60,107.20 -101.95,104.75 -103.00,103.00 -104.75,101.95 -107.20,101.60"/>
    </edge>
    <edge id=":gneJ20_1" function="internal">
        <lane id=":gneJ20_1_0" index="0" speed="13.89" length="14.40" shape="-101.60,107.20 -101.60,92.80"/>
    </edge>
    <edge id=":gneJ20_2" function="internal">
        <lane id=":gneJ20_2_0" index="0" speed="8.00" length="5.93" shape="-101.60,107.20 -101.05,103.35 -100.00,101.60"/>
    </edge>
    <edge id=":gneJ20_3" function="internal">
        <lane id=":gneJ20_3_0" index="0" speed="3.65" length="2.34" shape="-101.60,107.20 -100.80,106.00 -100.00,105.60"/>
    </edge>
    <edge id=":gneJ20_16" function="internal">
        <lane id=":gneJ20_16_0" index="0" speed="8.00" length="8.26" shape="-100.00,101.60 -99.40,100.60 -96.65,98.95 -92.80,98.40"/>
    </edge>
    <edge id=":gneJ20_17" function="internal">
        <lane id=":gneJ20_17_0" index="0" speed="3.65" length="2.34" shape="-100.00,105.60 -99.20,106.00 -98.40,107.20"/>
    </edge>
    <edge id=":gneJ20_4" function="internal">
        <lane id=":gneJ20_4_0" index="0" speed="6.51" length="9.03" shape="-92.80,101.60 -95.25,101.95 -97.00,103.00 -98.05,104.75 -98.40,107.20"/>
    </edge>
    <edge id=":gneJ20_5" function="internal">
        <lane id=":gneJ20_5_0" index="0" speed="13.89" length="14.40" shape="-92.80,101.60 -107.20,101.60"/>
    </edge>
    <edge id=":gneJ20_6" function="internal">
        <lane id=":gneJ20_6_0" index="0" speed="8.00" length="14.19" shape="-92.80,101.60 -96.65,101.05 -99.40,99.40 -101.05,96.65 -101.60,92.80"/>
    </edge>
    <edge id=":gneJ20_7" function="internal">
        <lane id=":gneJ20_7_0" index="0" speed="3.65" length="4.67" shape="-92.80,101.60 -94.00,100.80 -94.40,100.00 -94.00,99.20 -92.80,98.40"/>
    </edge>
    <edge id=":gneJ20_8" function="internal">
        <lane id=":gneJ20_8_0" index="0" speed="6.51" length="9.03" shape="-98.40,92.80 -98.05,95.25 -97.00,97.00 -95.25,98.05 -92.80,98.40"/>
    </edge>
    <edge id=":gneJ20_9" function="internal">
        <lane id=":gneJ20_9_0" index="0" speed="13.89" length="14.40" shape="-98.40,92.80 -98.40,107.20"/>
    </edge>
    <edge id=":gneJ20_10" function="internal">
        <lane id=":gneJ20_10_0" index="0" speed="8.00" length="5.93" shape="-98.40,92.80 -98.95,96.65 -100.00,98.40"/>
    </edge>
    <edge id=":gneJ20_11" function="internal">
        <lane id=":gneJ20_11_0" index="0" speed="3.65" length="2.34" shape="-98.40,92.80 -99.20,94.00 -100.00,94.40"/>
    </edge>
    <edge id=":gneJ20_18" function="internal">
        <lane id=":gneJ20_18_0" index="0" speed="8.00" length="8.26" shape="-100.00,98.40 -100.60,99.40 -103.35,101.05 -107.20,101.60"/>
    </edge>
    <edge id=":gneJ20_19" function="internal">
        <lane id=":gneJ20_19_0" index="0" speed="3.65" length="2.34" shape="-100.00,94.40 -100.80,94.00 -101.60,92.80"/>
    </edge>
    <edge id=":gneJ20_12" function="internal">
        <lane id=":gneJ20_12_0" index="0" speed="6.51" length="9.03" shape="-107.20,98.40 -104.75,98.05 -103.00,97.00 -101.95,95.25 -101.60,92.80"/>
    </edge>
    <edge id=":gneJ20_13" function="internal">
        <lane id=":gneJ20_13_0" index="0" speed="13.89" length="14.40" shape="-107.20,98.40 -92.80,98.40"/>
    </edge>
    <edge id=":gneJ20_14" function="internal">
        <lane id=":gneJ20_14_0" index="0" speed="8.00" length="14.19" shape="-107.20,98.40 -103.35,98.95 -100.60,100.60 -98.95,103.35 -98.40,107.20"/>
    </edge>
    <edge id=":gneJ20_15" function="internal">
        <lane id=":gneJ20_15_0" index="0" speed="3.65" length="4.67" shape="-107.20,98.40 -106.00,99.20 -105.60,100.00 -106.00,100.80 -107.20,101.60"/>
    </edge>
    <edge id=":gneJ23_0" function="internal">
        <lane id=":gneJ23_0_0" index="0" speed="6.51" length="9.03" shape="-101.60,7.20 -101.95,4.75 -103.00,3.00 -104.75,1.95 -107.20,1.60"/>
    </edge>
    <edge id=":gneJ23_1" function="internal">
        <lane id=":gneJ23_1_0" index="0" speed="13.89" length="14.40" shape="-101.60,7.20 -101.60,-7.20"/>
    </edge>
    <edge id=":gneJ23_2" function="internal">
        <lane id=":gneJ23_2_0" index="0" speed="8.00" length="5.93" shape="-101.60,7.20 -101.05,3.35 -100.00,1.60"/>
    </edge>
    <edge id=":gneJ23_3" function="internal">
        <lane id=":gneJ23_3_0" index="0" speed="3.65" length="2.34" shape="-101.60,7.20 -100.80,6.00 -100.00,5.60"/>
    </edge>
    <edge id=":gneJ23_16" function="internal">
        <lane id=":gneJ23_16_0" index="0" speed="8.00" length="8.26" shape="-100.00,1.60 -99.40,0.60 -96.65,-1.05 -92.80,-1.60"/>
    </edge>
    <edge id=":gneJ23_17" function="internal">
        <lane id=":gneJ23_17_0" index="0" speed="3.65" length="2.34" shape="-100.00,5.60 -99.20,6.00 -98.40,7.20"/>
    </edge>
    <edge id=":gneJ23_4" function="internal">
        <lane id=":gneJ23_4_0" index="0" speed="6.51" length="9.03" shape="-92.80,1.60 -95.25,1.95 -97.00,3.00 -98.05,4.75 -98.40,7.20"/>
    </edge>
    <edge id=":gneJ23_5" function="internal">
        <lane id=":gneJ23_5_0" index="0" speed="13.89" length="14.40" shape="-92.80,1.60 -107.20,1.60"/>
    </edge>
    <edge id=":gneJ23_6" function="internal">
        <lane id=":gneJ23_6_0" index="0" speed="8.00" length="14.19" shape="-92.80,1.60 -96.65,1.05 -99.40,-0.60 -101.05,-3.35 -101.60,-7.20"/>
    </edge>
    <edge id=":gneJ23_7" function="internal">
        <lane id=":gneJ23_7_0" index="0" speed="3.65" length="4.67" shape="-92.80,1.60 -94.00,0.80 -94.40,0.00 -94.00,-0.80 -92.80,-1.60"/>
    </edge>
    <edge id=":gneJ23_8" function="internal">
        <lane id=":gneJ23_8_0" index="0" speed="6.51" length="9.03" shape="-98.40,-7.20 -98.05,-4.75 -97.00,-3.00 -95.25,-1.95 -92.80,-1.60"/>
    </edge>
    <edge id=":gneJ23_9" function="internal">
        <lane id=":gneJ23_9_0" index="0" speed="13.89" length="14.40" shape="-98.40,-7.20 -98.40,7.20"/>
    </edge>
    <edge id=":gneJ23_10" function="internal">
        <lane id=":gneJ23_10_0" index="0" speed="8.00" length="5.93" shape="-98.40,-7.20 -98.95,-3.35 -100.00,-1.60"/>
    </edge>
    <edge id=":gneJ23_11" function="internal">
        <lane id=":gneJ23_11_0" index="0" speed="3.65" length="2.34" shape="-98.40,-7.20 -99.20,-6.00 -100.00,-5.60"/>
    </edge>
    <edge id=":gneJ23_18" function="internal">
        <lane id=":gneJ23_18_0" index="0" speed="8.00" length="8.26" shape="-100.00,-1.60 -100.60,-0.60 -103.35,1.05 -107.20,1.60"/>
    </edge>
    <edge id=":gneJ23_19" function="internal">
        <lane id=":gneJ23_19_0" index="0" speed="3.65" length="2.34" shape="-100.00,-5.60 -100.80,-6.00 -101.60,-7.20"/>
    </edge>
    <edge id=":gneJ23_12" function="internal">
        <lane id=":gneJ23_12_0" index="0" speed="6.51" length="9.03" shape="-107.20,-1.60 -104.75,-1.95 -103.00,-3.00 -101.95,-4.75 -101.60,-7.20"/>
    </edge>
    <edge id=":gneJ23_13" function="internal">
        <lane id=":gneJ23_13_0" index="0" speed="13.89" length="14.40" shape="-107.20,-1.60 -92.80,-1.60"/>
    </edge>
    <edge id=":gneJ23_14" function="internal">
        <lane id=":gneJ23_14_0" index="0" speed="8.00" length="14.19" shape="-107.20,-1.60 -103.35,-1.05 -100.60,0.60 -98.95,3.35 -98.40,7.20"/>
    </edge>
    <edge id=":gneJ23_15" function="internal">
        <lane id=":gneJ23_15_0" index="0" speed="3.65" length="4.67" shape="-107.20,-1.60 -106.00,-0.80 -105.60,0.00 -106.00,0.80 -107.20,1.60"/>
    </edge>
    <edge id=":gneJ24_0" function="internal">
        <lane id=":gneJ24_0_0" index="0" speed="13.89" length="14.40" shape="-1.60,107.20 -1.60,92.80"/>
    </edge>
    <edge id=":gneJ24_1" function="internal">
        <lane id=":gneJ24_1_0" index="0" speed="8.00" length="5.93" shape="-1.60,107.20 -1.05,103.35 0.00,101.60"/>
    </edge>
    <edge id=":gneJ24_2" function="internal">
        <lane id=":gneJ24_2_0" index="0" speed="3.65" length="2.34" shape="-1.60,107.20 -0.80,106.00 0.00,105.60"/>
    </edge>
    <edge id=":gneJ24_12" function="internal">
        <lane id=":gneJ24_12_0" index="0" speed="8.00" length="8.26" shape="0.00,101.60 0.60,100.60 3.35,98.95 7.20,98.40"/>
    </edge>
    <edge id=":gneJ24_13" function="internal">
        <lane id=":gneJ24_13_0" index="0" speed="3.65" length="2.34" shape="0.00,105.60 0.80,106.00 1.60,107.20"/>
    </edge>
    <edge id=":gneJ24_3" function="internal">
        <lane id=":gneJ24_3_0" index="0" speed="13.89" length="14.40" shape="7.20,101.60 -7.20,101.60"/>
    </edge>
    <edge id=":gneJ24_4" function="internal">
        <lane id=":gneJ24_4_0" index="0" speed="8.00" length="14.19" shape="7.20,101.60 3.35,101.05 0.60,99.40 -1.05,96.65 -1.60,92.80"/>
    </edge>
    <edge id=":gneJ24_5" function="internal">
        <lane id=":gneJ24_5_0" index="0" speed="3.65" length="4.67" shape="7.20,101.60 6.00,100.80 5.60,100.00 6.00,99.20 7.20,98.40"/>
    </edge>
    <edge id=":gneJ24_6" function="internal">
        <lane id=":gneJ24_6_0" index="0" speed="13.89" length="14.40" shape="1.60,92.80 1.60,107.20"/>
    </edge>
    <edge id=":gneJ24_7" function="internal">
        <lane id=":gneJ24_7_0" index="0" speed="8.00" length="5.93" shape="1.60,92.80 1.05,96.65 -0.00,98.40"/>
    </edge>
    <edge id=":gneJ24_8" function="internal">
        <lane id=":gneJ24_8_0" index="0" speed="3.65" length="2.34" shape="1.60,92.80 0.80,94.00 0.00,94.40"/>
    </edge>
    <edge id=":gneJ24_14" function="internal">
        <lane id=":gneJ24_14_0" index="0" speed="8.00" length="8.26" shape="-0.00,98.40 -0.60,99.40 -3.35,101.05 -7.20,101.60"/>
    </edge>
    <edge id=":gneJ24_15" function="internal">
        <lane id=":gneJ24_15_0" index="0" speed="3.65" length="2.34" shape="0.00,94.40 -0.80,94.00 -1.60,92.80"/>
    </edge>
    <edge id=":gneJ24_9" function="internal">
        <lane id=":gneJ24_9_0" index="0" speed="13.89" length="14.40" shape="-7.20,98.40 7.20,98.40"/>
    </edge>
    <edge id=":gneJ24_10" function="internal">
        <lane id=":gneJ24_10_0" index="0" speed="8.00" length="14.19" shape="-7.20,98.40 -3.35,98.95 -0.60,100.60 1.05,103.35 1.60,107.20"/>
    </edge>
    <edge id=":gneJ24_11" function="internal">
        <lane id=":gneJ24_11_0" index="0" speed="3.65" length="4.67" shape="-7.20,98.40 -6.00,99.20 -5.60,100.00 -6.00,100.80 -7.20,101.60"/>
    </edge>
    <edge id=":gneJ27_0" function="internal">
        <lane id=":gneJ27_0_0" index="0" speed="6.51" length="9.03" shape="-1.60,7.20 -1.95,4.75 -3.00,3.00 -4.75,1.95 -7.20,1.60"/>
    </edge>
    <edge id=":gneJ27_1" function="internal">
        <lane id=":gneJ27_1_0" index="0" speed="13.89" length="14.40" shape="-1.60,7.20 -1.60,-7.20"/>
    </edge>
    <edge id=":gneJ27_2" function="internal">
        <lane id=":gneJ27_2_0" index="0" speed="8.00" length="5.93" shape="-1.60,7.20 -1.05,3.35 0.00,1.60"/>
    </edge>
    <edge id=":gneJ27_3" function="internal">
        <lane id=":gneJ27_3_0" index="0" speed="3.65" length="2.34" shape="-1.60,7.20 -0.80,6.00 0.00,5.60"/>
    </edge>
    <edge id=":gneJ27_16" function="internal">
        <lane id=":gneJ27_16_0" index="0" speed="8.00" length="8.26" shape="0.00,1.60 0.60,0.60 3.35,-1.05 7.20,-1.60"/>
    </edge>
    <edge id=":gneJ27_17" function="internal">
        <lane id=":gneJ27_17_0" index="0" speed="3.65" length="2.34" shape="0.00,5.60 0.80,6.00 1.60,7.20"/>
    </edge>
    <edge id=":gneJ27_4" function="internal">
        <lane id=":gneJ27_4_0" index="0" speed="6.51" length="9.03" shape="7.20,1.60 4.75,1.95 3.00,3.00 1.95,4.75 1.60,7.20"/>
    </edge>
    <edge id=":gneJ27_5" function="internal">
        <lane id=":gneJ27_5_0" index="0" speed="13.89" length="14.40" shape="7.20,1.60 -7.20,1.60"/>
    </edge>
    <edge id=":gneJ27_6" function="internal">
        <lane id=":gneJ27_6_0" index="0" speed="8.00" length="14.19" shape="7.20,1.60 3.35,1.05 0.60,-0.60 -1.05,-3.35 -1.60,-7.20"/>
    </edge>
    <edge id=":gneJ27_7" function="internal">
        <lane id=":gneJ27_7_0" index="0" speed="3.65" length="4.67" shape="7.20,1.60 6.00,0.80 5.60,0.00 6.00,-0.80 7.20,-1.60"/>
    </edge>
    <edge id=":gneJ27_8" function="internal">
        <lane id=":gneJ27_8_0" index="0" speed="6.51" length="9.03" shape="1.60,-7.20 1.95,-4.75 3.00,-3.00 4.75,-1.95 7.20,-1.60"/>
    </edge>
    <edge id=":gneJ27_9" function="internal">
        <lane id=":gneJ27_9_0" index="0" speed="13.89" length="14.40" shape="1.60,-7.20 1.60,7.20"/>
    </edge>
    <edge id=":gneJ27_10" function="internal">
        <lane id=":gneJ27_10_0" index="0" speed="8.00" length="5.93" shape="1.60,-7.20 1.05,-3.35 0.00,-1.60"/>
    </edge>
    <edge id=":gneJ27_11" function="internal">
        <lane id=":gneJ27_11_0" index="0" speed="3.65" length="2.34" shape="1.60,-7.20 0.80,-6.00 0.00,-5.60"/>
    </edge>
    <edge id=":gneJ27_18" function="internal">
        <lane id=":gneJ27_18_0" index="0" speed="8.00" length="8.26" shape="0.00,-1.60 -0.60,-0.60 -3.35,1.05 -7.20,1.60"/>
    </edge>
    <edge id=":gneJ27_19" function="internal">
        <lane id=":gneJ27_19_0" index="0" speed="3.65" length="2.34" shape="0.00,-5.60 -0.80,-6.00 -1.60,-7.20"/>
    </edge>
    <edge id=":gneJ27_12" function="internal">
        <lane id=":gneJ27_12_0" index="0" speed="6.51" length="9.03" shape="-7.20,-1.60 -4.75,-1.95 -3.00,-3.00 -1.95,-4.75 -1.60,-7.20"/>
    </edge>
    <edge id=":gneJ27_13" function="internal">
        <lane id=":gneJ27_13_0" index="0" speed="13.89" length="14.40" shape="-7.20,-1.60 7.20,-1.60"/>
    </edge>
    <edge id=":gneJ27_14" function="internal">
        <lane id=":gneJ27_14_0" index="0" speed="8.00" length="14.19" shape="-7.20,-1.60 -3.35,-1.05 -0.60,0.60 1.05,3.35 1.60,7.20"/>
    </edge>
    <edge id=":gneJ27_15" function="internal">
        <lane id=":gneJ27_15_0" index="0" speed="3.65" length="4.67" shape="-7.20,-1.60 -6.00,-0.80 -5.60,0.00 -6.00,0.80 -7.20,1.60"/>
    </edge>

    <edge id="gneE15" from="gneJ19" to="gneJ20" priority="-1">
        <lane id="gneE15_0" index="0" speed="13.89" length="92.80" shape="-101.60,200.00 -101.60,107.20"/>
    </edge>
    <edge id="gneE16" from="gneJ21" to="gneJ20" priority="-1">
        <lane id="gneE16_0" index="0" speed="13.89" length="92.80" shape="-200.00,98.40 -107.20,98.40"/>
    </edge>
    <edge id="gneE17" from="gneJ22" to="gneJ23" priority="-1">
        <lane id="gneE17_0" index="0" speed="13.89" length="92.80" shape="-200.00,-1.60 -107.20,-1.60"/>
    </edge>
    <edge id="gneE18" from="gneJ23" to="gneJ20" priority="-1">
        <lane id="gneE18_0" index="0" speed="13.89" length="85.60" shape="-98.40,7.20 -98.40,92.80"/>
    </edge>
    <edge id="gneE19" from="gneJ20" to="gneJ23" priority="-1">
        <lane id="gneE19_0" index="0" speed="13.89" length="85.60" shape="-101.60,92.80 -101.60,7.20"/>
    </edge>
    <edge id="gneE20" from="gneJ20" to="gneJ19" priority="-1">
        <lane id="gneE20_0" index="0" speed="13.89" length="92.80" shape="-98.40,107.20 -98.40,200.00"/>
    </edge>
    <edge id="gneE21" from="gneJ20" to="gneJ21" priority="-1">
        <lane id="gneE21_0" index="0" speed="13.89" length="92.80" shape="-107.20,101.60 -200.00,101.60"/>
    </edge>
    <edge id="gneE22" from="gneJ24" to="gneJ20" priority="-1">
        <lane id="gneE22_0" index="0" speed="13.89" length="85.60" shape="-7.20,101.60 -92.80,101.60"/>
    </edge>
    <edge id="gneE23" from="gneJ20" to="gneJ24" priority="-1">
        <lane id="gneE23_0" index="0" speed="13.89" length="85.60" shape="-92.80,98.40 -7.20,98.40"/>
    </edge>
    <edge id="gneE24" from="gneJ24" to="gneJ25" priority="-1">
        <lane id="gneE24_0" index="0" speed="13.89" length="92.80" shape="1.60,107.20 1.60,200.00"/>
    </edge>
    <edge id="gneE25" from="gneJ25" to="gneJ24" priority="-1">
        <lane id="gneE25_0" index="0" speed="13.89" length="92.80" shape="-1.60,200.00 -1.60,107.20"/>
    </edge>
    <edge id="gneE26" from="gneJ24" to="gneJ26" priority="-1">
        <lane id="gneE26_0" index="0" speed="13.89" length="92.80" shape="7.20,98.40 100.00,98.40"/>
    </edge>
    <edge id="gneE27" from="gneJ26" to="gneJ24" priority="-1">
        <lane id="gneE27_0" index="0" speed="13.89" length="92.80" shape="100.00,101.60 7.20,101.60"/>
    </edge>
    <edge id="gneE28" from="gneJ24" to="gneJ27" priority="-1">
        <lane id="gneE28_0" index="0" speed="13.89" length="85.60" shape="-1.60,92.80 -1.60,7.20"/>
    </edge>
    <edge id="gneE29" from="gneJ27" to="gneJ24" priority="-1">
        <lane id="gneE29_0" index="0" speed="13.89" length="85.60" shape="1.60,7.20 1.60,92.80"/>
    </edge>
    <edge id="gneE30" from="gneJ27" to="gneJ23" priority="-1">
        <lane id="gneE30_0" index="0" speed="13.89" length="85.60" shape="-7.20,1.60 -92.80,1.60"/>
    </edge>
    <edge id="gneE31" from="gneJ23" to="gneJ27" priority="-1">
        <lane id="gneE31_0" index="0" speed="13.89" length="85.60" shape="-92.80,-1.60 -7.20,-1.60"/>
    </edge>
    <edge id="gneE32" from="gneJ23" to="gneJ22" priority="-1">
        <lane id="gneE32_0" index="0" speed="13.89" length="92.80" shape="-107.20,1.60 -200.00,1.60"/>
    </edge>
    <edge id="gneE33" from="gneJ23" to="gneJ28" priority="-1">
        <lane id="gneE33_0" index="0" speed="13.89" length="92.80" shape="-101.60,-7.20 -101.60,-100.00"/>
    </edge>
    <edge id="gneE34" from="gneJ28" to="gneJ23" priority="-1">
        <lane id="gneE34_0" index="0" speed="13.89" length="92.80" shape="-98.40,-100.00 -98.40,-7.20"/>
    </edge>
    <edge id="gneE35" from="gneJ27" to="gneJ29" priority="-1">
        <lane id="gneE35_0" index="0" speed="13.89" length="92.80" shape="-1.60,-7.20 -1.60,-100.00"/>
    </edge>
    <edge id="gneE36" from="gneJ29" to="gneJ27" priority="-1">
        <lane id="gneE36_0" index="0" speed="13.89" length="92.80" shape="1.60,-100.00 1.60,-7.20"/>
    </edge>
    <edge id="gneE37" from="gneJ27" to="gneJ30" priority="-1">
        <lane id="gneE37_0" index="0" speed="13.89" length="92.80" shape="7.20,-1.60 100.00,-1.60"/>
    </edge>
    <edge id="gneE38" from="gneJ30" to="gneJ27" priority="-1">
        <lane id="gneE38_0" index="0" speed="13.89" length="92.80" shape="100.00,1.60 7.20,1.60"/>
    </edge>

    <junction id="gneJ19" type="dead_end" x="-100.00" y="200.00" incLanes="gneE20_0" intLanes="" shape="-100.00,200.00 -96.80,200.00 -100.00,200.00"/>
    <junction id="gneJ20" type="priority" x="-100.00" y="100.00" incLanes="gneE15_0 gneE22_0 gneE18_0 gneE16_0" intLanes=":gneJ20_0_0 :gneJ20_1_0 :gneJ20_16_0 :gneJ20_17_0 :gneJ20_4_0 :gneJ20_5_0 :gneJ20_6_0 :gneJ20_7_0 :gneJ20_8_0 :gneJ20_9_0 :gneJ20_18_0 :gneJ20_19_0 :gneJ20_12_0 :gneJ20_13_0 :gneJ20_14_0 :gneJ20_15_0" shape="-103.20,107.20 -96.80,107.20 -96.36,104.98 -95.80,104.20 -95.02,103.64 -94.02,103.31 -92.80,103.20 -92.80,96.80 -95.02,96.36 -95.80,95.80 -96.36,95.02 -96.69,94.02 -96.80,92.80 -103.20,92.80 -103.64,95.02 -104.20,95.80 -104.98,96.36 -105.98,96.69 -107.20,96.80 -107.20,103.20 -104.98,103.64 -104.20,104.20 -103.64,104.98 -103.31,105.98">
        <request index="0"  response="0000000000000000" foes="1000010000100000" cont="0"/>
        <request index="1"  response="0000000000000000" foes="0111110001100000" cont="0"/>
        <request index="2"  response="0000001100000000" foes="0110001111100000" cont="1"/>
        <request index="3"  response="0100001000010000" foes="0100001000010000" cont="1"/>
        <request index="4"  response="0000001000000000" foes="0100001000001000" cont="0"/>
        <request index="5"  response="0000011000000111" foes="1100011000000111" cont="0"/>
        <request index="6"  response="0011011000000110" foes="0011111000000110" cont="0"/>
        <request index="7"  response="0010000100000100" foes="0010000100000100" cont="0"/>
        <request index="8"  response="0000000000000000" foes="0010000010000100" cont="0"/>
        <request index="9"  response="0000000000000000" foes="0110000001111100" cont="0"/>
        <request index="10" response="0000000000000011" foes="1110000001100011" cont="1"/>
        <request index="11" response="0001000001000010" foes="0001000001000010" cont="1"/>
        <request index="12" response="0000000000000010" foes="0000100001000010" cont="0"/>
        <request index="13" response="0000011100000110" foes="0000011111000110" cont="0"/>
        <request index="14" response="0000011000110110" foes="0000011000111110" cont="0"/>
        <request index="15" response="0000010000100001" foes="0000010000100001" cont="0"/>
    </junction>
    <junction id="gneJ21" type="dead_end" x="-200.00" y="100.00" incLanes="gneE21_0" intLanes="" shape="-200.00,100.00 -200.00,103.20 -200.00,100.00"/>
    <junction id="gneJ22" type="dead_end" x="-200.00" y="0.00" incLanes="gneE32_0" intLanes="" shape="-200.00,0.00 -200.00,3.20 -200.00,0.00"/>
    <junction id="gneJ23" type="priority" x="-100.00" y="0.00" incLanes="gneE19_0 gneE30_0 gneE34_0 gneE17_0" intLanes=":gneJ23_0_0 :gneJ23_1_0 :gneJ23_16_0 :gneJ23_17_0 :gneJ23_4_0 :gneJ23_5_0 :gneJ23_6_0 :gneJ23_7_0 :gneJ23_8_0 :gneJ23_9_0 :gneJ23_18_0 :gneJ23_19_0 :gneJ23_12_0 :gneJ23_13_0 :gneJ23_14_0 :gneJ23_15_0" shape="-103.20,7.20 -96.80,7.20 -96.36,4.98 -95.80,4.20 -95.02,3.64 -94.02,3.31 -92.80,3.20 -92.80,-3.20 -95.02,-3.64 -95.80,-4.20 -96.36,-4.98 -96.69,-5.98 -96.80,-7.20 -103.20,-7.20 -103.64,-4.98 -104.20,-4.20 -104.98,-3.64 -105.98,-3.31 -107.20,-3.20 -107.20,3.20 -104.98,3.64 -104.20,4.20 -103.64,4.98 -103.31,5.98">
        <request index="0"  response="0000000000000000" foes="1000010000100000" cont="0"/>
        <request index="1"  response="0000000000000000" foes="0111110001100000" cont="0"/>
        <request index="2"  response="0000001100000000" foes="0110001111100000" cont="1"/>
        <request index="3"  response="0100001000010000" foes="0100001000010000" cont="1"/>
        <request index="4"  response="0000001000000000" foes="0100001000001000" cont="0"/>
        <request index="5"  response="0000011000000111" foes="1100011000000111" cont="0"/>
        <request index="6"  response="0011011000000110" foes="0011111000000110" cont="0"/>
        <request index="7"  response="0010000100000100" foes="0010000100000100" cont="0"/>
        <request index="8"  response="0000000000000000" foes="0010000010000100" cont="0"/>
        <request index="9"  response="0000000000000000" foes="0110000001111100" cont="0"/>
        <request index="10" response="0000000000000011" foes="1110000001100011" cont="1"/>
        <request index="11" response="0001000001000010" foes="0001000001000010" cont="1"/>
        <request index="12" response="0000000000000010" foes="0000100001000010" cont="0"/>
        <request index="13" response="0000011100000110" foes="0000011111000110" cont="0"/>
        <request index="14" response="0000011000110110" foes="0000011000111110" cont="0"/>
        <request index="15" response="0000010000100001" foes="0000010000100001" cont="0"/>
    </junction>
    <junction id="gneJ24" type="priority" x="0.00" y="100.00" incLanes="gneE25_0 gneE27_0 gneE29_0 gneE23_0" intLanes=":gneJ24_0_0 :gneJ24_12_0 :gneJ24_13_0 :gneJ24_3_0 :gneJ24_4_0 :gneJ24_5_0 :gneJ24_6_0 :gneJ24_14_0 :gneJ24_15_0 :gneJ24_9_0 :gneJ24_10_0 :gneJ24_11_0" shape="-3.20,107.20 3.20,107.20 3.64,104.98 4.20,104.20 4.98,103.64 5.98,103.31 7.20,103.20 7.20,96.80 4.98,96.36 4.20,95.80 3.64,95.02 3.31,94.02 3.20,92.80 -3.20,92.80 -3.64,95.02 -4.20,95.80 -4.98,96.36 -5.98,96.69 -7.20,96.80 -7.20,103.20 -4.98,103.64 -4.20,104.20 -3.64,104.98 -3.31,105.98">
        <request index="0"  response="000000000000" foes="011110011000" cont="0"/>
        <request index="1"  response="000001000000" foes="011001111000" cont="1"/>
        <request index="2"  response="010001000000" foes="010001000000" cont="1"/>
        <request index="3"  response="000011000011" foes="110011000011" cont="0"/>
        <request index="4"  response="001011000011" foes="001111000011" cont="0"/>
        <request index="5"  response="001000000010" foes="001000000010" cont="0"/>
        <request index="6"  response="000000000000" foes="011000011110" cont="0"/>
        <request index="7"  response="000000000001" foes="111000011001" cont="1"/>
        <request index="8"  response="000000010001" foes="000000010001" cont="1"/>
        <request index="9"  response="000011000011" foes="000011110011" cont="0"/>
        <request index="10" response="000011001011" foes="000011001111" cont="0"/>
        <request index="11" response="000010001000" foes="000010001000" cont="0"/>
    </junction>
    <junction id="gneJ25" type="dead_end" x="0.00" y="200.00" incLanes="gneE24_0" intLanes="" shape="0.00,200.00 3.20,200.00 0.00,200.00"/>
    <junction id="gneJ26" type="dead_end" x="100.00" y="100.00" incLanes="gneE26_0" intLanes="" shape="100.00,100.00 100.00,96.80 100.00,100.00"/>
    <junction id="gneJ27" type="priority" x="0.00" y="0.00" incLanes="gneE28_0 gneE38_0 gneE36_0 gneE31_0" intLanes=":gneJ27_0_0 :gneJ27_1_0 :gneJ27_16_0 :gneJ27_17_0 :gneJ27_4_0 :gneJ27_5_0 :gneJ27_6_0 :gneJ27_7_0 :gneJ27_8_0 :gneJ27_9_0 :gneJ27_18_0 :gneJ27_19_0 :gneJ27_12_0 :gneJ27_13_0 :gneJ27_14_0 :gneJ27_15_0" shape="-3.20,7.20 3.20,7.20 3.64,4.98 4.20,4.20 4.98,3.64 5.98,3.31 7.20,3.20 7.20,-3.20 4.98,-3.64 4.20,-4.20 3.64,-4.98 3.31,-5.98 3.20,-7.20 -3.20,-7.20 -3.64,-4.98 -4.20,-4.20 -4.98,-3.64 -5.98,-3.31 -7.20,-3.20 -7.20,3.20 -4.98,3.64 -4.20,4.20 -3.64,4.98 -3.31,5.98">
        <request index="0"  response="0000000000000000" foes="1000010000100000" cont="0"/>
        <request index="1"  response="0000000000000000" foes="0111110001100000" cont="0"/>
        <request index="2"  response="0000001100000000" foes="0110001111100000" cont="1"/>
        <request index="3"  response="0100001000010000" foes="0100001000010000" cont="1"/>
        <request index="4"  response="0000001000000000" foes="0100001000001000" cont="0"/>
        <request index="5"  response="0000011000000111" foes="1100011000000111" cont="0"/>
        <request index="6"  response="0011011000000110" foes="0011111000000110" cont="0"/>
        <request index="7"  response="0010000100000100" foes="0010000100000100" cont="0"/>
        <request index="8"  response="0000000000000000" foes="0010000010000100" cont="0"/>
        <request index="9"  response="0000000000000000" foes="0110000001111100" cont="0"/>
        <request index="10" response="0000000000000011" foes="1110000001100011" cont="1"/>
        <request index="11" response="0001000001000010" foes="0001000001000010" cont="1"/>
        <request index="12" response="0000000000000010" foes="0000100001000010" cont="0"/>
        <request index="13" response="0000011100000110" foes="0000011111000110" cont="0"/>
        <request index="14" response="0000011000110110" foes="0000011000111110" cont="0"/>
        <request index="15" response="0000010000100001" foes="0000010000100001" cont="0"/>
    </junction>
    <junction id="gneJ28" type="dead_end" x="-100.00" y="-100.00" incLanes="gneE33_0" intLanes="" shape="-100.00,-100.00 -103.20,-100.00 -100.00,-100.00"/>
    <junction id="gneJ29" type="dead_end" x="0.00" y="-100.00" incLanes="gneE35_0" intLanes="" shape="0.00,-100.00 -3.20,-100.00 0.00,-100.00"/>
    <junction id="gneJ30" type="dead_end" x="100.00" y="0.00" incLanes="gneE37_0" intLanes="" shape="100.00,0.00 100.00,-3.20 100.00,0.00"/>

    <junction id=":gneJ20_16_0" type="internal" x="-100.00" y="101.60" incLanes=":gneJ20_2_0 gneE18_0" intLanes=":gneJ20_5_0 :gneJ20_6_0 :gneJ20_7_0 :gneJ20_8_0 :gneJ20_9_0 :gneJ20_13_0 :gneJ20_14_0"/>
    <junction id=":gneJ20_17_0" type="internal" x="-100.00" y="105.60" incLanes=":gneJ20_3_0 gneE16_0 gneE18_0 gneE22_0" intLanes=":gneJ20_4_0 :gneJ20_9_0 :gneJ20_14_0"/>
    <junction id=":gneJ20_18_0" type="internal" x="-100.00" y="98.40" incLanes=":gneJ20_10_0 gneE15_0" intLanes=":gneJ20_0_0 :gneJ20_1_0 :gneJ20_5_0 :gneJ20_6_0 :gneJ20_13_0 :gneJ20_14_0 :gneJ20_15_0"/>
    <junction id=":gneJ20_19_0" type="internal" x="-100.00" y="94.40" incLanes=":gneJ20_11_0 gneE15_0 gneE16_0 gneE22_0" intLanes=":gneJ20_1_0 :gneJ20_6_0 :gneJ20_12_0"/>
    <junction id=":gneJ23_16_0" type="internal" x="-100.00" y="1.60" incLanes=":gneJ23_2_0 gneE34_0" intLanes=":gneJ23_5_0 :gneJ23_6_0 :gneJ23_7_0 :gneJ23_8_0 :gneJ23_9_0 :gneJ23_13_0 :gneJ23_14_0"/>
    <junction id=":gneJ23_17_0" type="internal" x="-100.00" y="5.60" incLanes=":gneJ23_3_0 gneE17_0 gneE30_0 gneE34_0" intLanes=":gneJ23_4_0 :gneJ23_9_0 :gneJ23_14_0"/>