<?xml version="1.0" encoding="UTF-8"?>

<!-- generated on 2021-06-24 01:25:09 by Eclipse SUMO netedit Version 1.9.2
<configuration xmlns:xsi="http://www.w3.org/2001/XMLSchema-instance" xsi:noNamespaceSchemaLocation="http://sumo.dlr.de/xsd/netconvertConfiguration.xsd">

    <input>
        <sumo-net-file value="/home/fazel/Adaptive_Routing_W_Q_Learning_main/environments/sumo/networks/3x3/network.net.xml"/>
    </input>

    <output>
        <output-file value="/home/fazel/Adaptive_Routing_W_Q_Learning_main/environments/sumo/networks/3x3/network.net.xml"/>
    </output>

    <processing>
        <geometry.min-radius.fix.railways value="false"/>
        <geometry.max-grade.fix value="false"/>
        <offset.disable-normalization value="true"/>
        <lefthand value="false"/>
    </processing>

    <junctions>
        <no-turnarounds value="true"/>
        <junctions.corner-detail value="5"/>
        <junctions.limit-turn-speed value="5.5"/>
        <rectangular-lane-cut value="false"/>
    </junctions>

    <pedestrian>
        <walkingareas value="false"/>
    </pedestrian>

    <report>
        <aggregate-warnings value="5"/>
    </report>

</configuration>
-->

<net version="1.9" junctionCornerDetail="5" limitTurnSpeed="5.50" xmlns:xsi="http://www.w3.org/2001/XMLSchema-instance" xsi:noNamespaceSchemaLocation="http://sumo.dlr.de/xsd/net_file.xsd">

    <location netOffset="0.00,0.00" convBoundary="-200.00,-100.00,100.00,200.00" origBoundary="-10000000000.00,-10000000000.00,10000000000.00,10000000000.00" projParameter="!"/>

    <edge id=":gneJ20_0" function="internal">
        <lane id=":gneJ20_0_0" index="0" speed="6.51" length="9.03" shape="-101.60,107.20 -101.95,104.75 -103.00,103.00 -104.75,101.95 -107.20,101.60"/>
    </edge>
    <edge id=":gneJ20_1" function="internal">
        <lane id=":gneJ20_1_0" index="0" speed="8.00" length="14.19" shape="-101.60,107.20 -101.05,103.35 -99.40,100.60 -96.65,98.95 -92.80,98.40"/>
    </edge>
    <edge id=":gneJ20_2" function="internal">
        <lane id=":gneJ20_2_0" index="0" speed="3.65" length="4.67" shape="-101.60,107.20 -100.80,106.00 -100.00,105.60 -99.20,106.00 -98.40,107.20"/>
    </edge>
    <edge id=":gneJ20_3" function="internal">
        <lane id=":gneJ20_3_0" index="0" speed="6.51" length="9.03" shape="-92.80,101.60 -95.25,101.95 -97.00,103.00 -98.05,104.75 -98.40,107.20"/>
    </edge>
    <edge id=":gneJ20_4" function="internal">
        <lane id=":gneJ20_4_0" index="0" speed="13.89" length="14.40" shape="-92.80,101.60 -107.20,101.60"/>
    </edge>
    <edge id=":gneJ20_5" function="internal">
        <lane id=":gneJ20_5_0" index="0" speed="3.65" length="2.34" shape="-92.80,101.60 -94.00,100.80 -94.40,100.00"/>
    </edge>
    <edge id=":gneJ20_9" function="internal">
        <lane id=":gneJ20_9_0" index="0" speed="3.65" length="2.34" shape="-94.40,100.00 -94.00,99.20 -92.80,98.40"/>
    </edge>
    <edge id=":gneJ20_6" function="internal">
        <lane id=":gneJ20_6_0" index="0" speed="13.89" length="14.40" shape="-107.20,98.40 -92.80,98.40"/>
    </edge>
    <edge id=":gneJ20_7" function="internal">
        <lane id=":gneJ20_7_0" index="0" speed="8.00" length="5.93" shape="-107.20,98.40 -103.35,98.95 -101.60,100.00"/>
    </edge>
    <edge id=":gneJ20_8" function="internal">
        <lane id=":gneJ20_8_0" index="0" speed="3.65" length="2.34" shape="-107.20,98.40 -106.00,99.20 -105.60,100.00"/>
    </edge>
    <edge id=":gneJ20_10" function="internal">
        <lane id=":gneJ20_10_0" index="0" speed="8.00" length="8.26" shape="-101.60,100.00 -100.60,100.60 -98.95,103.35 -98.40,107.20"/>
    </edge>
    <edge id=":gneJ20_11" function="internal">
        <lane id=":gneJ20_11_0" index="0" speed="3.65" length="2.34" shape="-105.60,100.00 -106.00,100.80 -107.20,101.60"/>
    </edge>
    <edge id=":gneJ23_0" function="internal">
        <lane id=":gneJ23_0_0" index="0" speed="13.42" length="16.74" shape="-92.84,9.42 -96.67,6.00 -100.34,3.56 -103.85,2.09 -107.20,1.60"/>
    </edge>
    <edge id=":gneJ23_1" function="internal">
        <lane id=":gneJ23_1_0" index="0" speed="13.89" length="19.24" shape="-92.84,9.42 -96.67,5.10 -99.41,0.89 -101.05,-3.21 -101.60,-7.20"/>
    </edge>
    <edge id=":gneJ23_2" function="internal">
        <lane id=":gneJ23_2_0" index="0" speed="7.42" length="19.31" shape="-92.84,9.42 -96.69,4.60 -97.21,1.16 -94.41,-0.91 -88.27,-1.60"/>
    </edge>
    <edge id=":gneJ23_3" function="internal">
        <lane id=":gneJ23_3_0" index="0" speed="5.47" length="9.74" shape="-88.27,1.60 -91.37,1.95 -92.78,2.99 -92.52,4.73 -90.58,7.16"/>
    </edge>
    <edge id=":gneJ23_4" function="internal">
        <lane id=":gneJ23_4_0" index="0" speed="13.89" length="18.93" shape="-88.27,1.60 -107.20,1.60"/>
    </edge>
    <edge id=":gneJ23_5" function="internal">
        <lane id=":gneJ23_5_0" index="0" speed="8.71" length="6.41" shape="-88.27,1.60 -92.60,0.84 -94.44,-0.00"/>
    </edge>
    <edge id=":gneJ23_6" function="internal">
        <lane id=":gneJ23_6_0" index="0" speed="3.65" length="2.34" shape="-88.27,1.60 -89.47,0.80 -89.87,0.00"/>
    </edge>
    <edge id=":gneJ23_15" function="internal">
        <lane id=":gneJ23_15_0" index="0" speed="8.71" length="10.61" shape="-94.44,-0.00 -96.93,-1.15 -100.27,-3.97 -101.60,-7.20"/>
    </edge>
    <edge id=":gneJ23_16" function="internal">
        <lane id=":gneJ23_16_0" index="0" speed="3.65" length="2.34" shape="-89.87,0.00 -89.47,-0.80 -88.27,-1.60"/>
    </edge>
    <edge id=":gneJ23_7" function="internal">
        <lane id=":gneJ23_7_0" index="0" speed="7.65" length="12.89" shape="-98.40,-7.20 -97.77,-4.75 -95.87,-3.00 -92.70,-1.95 -88.27,-1.60"/>
    </edge>
    <edge id=":gneJ23_8" function="internal">
        <lane id=":gneJ23_8_0" index="0" speed="13.42" length="16.74" shape="-98.40,-7.20 -97.91,-3.85 -96.44,-0.34 -94.00,3.33 -90.58,7.16"/>
    </edge>
    <edge id=":gneJ23_9" function="internal">
        <lane id=":gneJ23_9_0" index="0" speed="8.00" length="14.19" shape="-98.40,-7.20 -98.95,-3.35 -100.60,-0.60 -103.35,1.05 -107.20,1.60"/>
    </edge>
    <edge id=":gneJ23_10" function="internal">
        <lane id=":gneJ23_10_0" index="0" speed="3.65" length="4.67" shape="-98.40,-7.20 -99.20,-6.00 -100.00,-5.60 -100.80,-6.00 -101.60,-7.20"/>
    </edge>
    <edge id=":gneJ23_11" function="internal">
        <lane id=":gneJ23_11_0" index="0" speed="6.51" length="9.03" shape="-107.20,-1.60 -104.75,-1.95 -103.00,-3.00 -101.95,-4.75 -101.60,-7.20"/>
    </edge>
    <edge id=":gneJ23_12" function="internal">
        <lane id=":gneJ23_12_0" index="0" speed="13.89" length="18.93" shape="-107.20,-1.60 -88.27,-1.60"/>
    </edge>
    <edge id=":gneJ23_13" function="internal">
        <lane id=":gneJ23_13_0" index="0" speed="13.89" length="5.82" shape="-107.20,-1.60 -103.56,-0.85 -101.64,0.00"/>
    </edge>
    <edge id=":gneJ23_14" function="internal">
        <lane id=":gneJ23_14_0" index="0" speed="3.65" length="2.34" shape="-107.20,-1.60 -106.00,-0.80 -105.60,0.00"/>
    </edge>
    <edge id=":gneJ23_17" function="internal">
        <lane id=":gneJ23_17_0" index="0" speed="13.89" length="13.25" shape="-101.64,0.00 -99.06,1.14 -94.47,3.94 -90.58,7.16"/>
    </edge>
    <edge id=":gneJ23_18" function="internal">
        <lane id=":gneJ23_18_0" index="0" speed="3.65" length="2.34" shape="-105.60,0.00 -106.00,0.80 -107.20,1.60"/>
    </edge>
    <edge id=":gneJ24_0" function="internal">
        <lane id=":gneJ24_0_0" index="0" speed="7.65" length="12.89" shape="-1.60,107.20 -2.23,104.75 -4.13,103.00 -7.30,101.95 -11.73,101.60"/>
    </edge>
    <edge id=":gneJ24_1" function="internal">
        <lane id=":gneJ24_1_0" index="0" speed="13.42" length="16.74" shape="-1.60,107.20 -2.09,103.85 -3.56,100.34 -6.00,96.67 -9.42,92.84"/>
    </edge>
    <edge id=":gneJ24_2" function="internal">
        <lane id=":gneJ24_2_0" index="0" speed="8.00" length="14.19" shape="-1.60,107.20 -1.05,103.35 0.60,100.60 3.35,98.95 7.20,98.40"/>
    </edge>
    <edge id=":gneJ24_3" function="internal">
        <lane id=":gneJ24_3_0" index="0" speed="3.65" length="4.67" shape="-1.60,107.20 -0.80,106.00 0.00,105.60 0.80,106.00 1.60,107.20"/>
    </edge>
    <edge id=":gneJ24_4" function="internal">
        <lane id=":gneJ24_4_0" index="0" speed="6.51" length="9.03" shape="7.20,101.60 4.75,101.95 3.00,103.00 1.95,104.75 1.60,107.20"/>
    </edge>
    <edge id=":gneJ24_5" function="internal">
        <lane id=":gneJ24_5_0" index="0" speed="13.89" length="18.93" shape="7.20,101.60 -11.73,101.60"/>
    </edge>
    <edge id=":gneJ24_6" function="internal">
        <lane id=":gneJ24_6_0" index="0" speed="13.89" length="5.82" shape="7.20,101.60 3.56,100.85 1.64,100.00"/>
    </edge>
    <edge id=":gneJ24_7" function="internal">
        <lane id=":gneJ24_7_0" index="0" speed="3.65" length="2.34" shape="7.20,101.60 6.00,100.80 5.60,100.00"/>
    </edge>
    <edge id=":gneJ24_15" function="internal">
        <lane id=":gneJ24_15_0" index="0" speed="13.89" length="13.25" shape="1.64,100.00 -0.94,98.86 -5.53,96.06 -9.42,92.84"/>
    </edge>
    <edge id=":gneJ24_16" function="internal">
        <lane id=":gneJ24_16_0" index="0" speed="3.65" length="2.34" shape="5.60,100.00 6.00,99.20 7.20,98.40"/>
    </edge>
    <edge id=":gneJ24_8" function="internal">
        <lane id=":gneJ24_8_0" index="0" speed="13.42" length="16.74" shape="-7.16,90.58 -3.33,94.00 0.34,96.44 3.85,97.91 7.20,98.40"/>
    </edge>
    <edge id=":gneJ24_9" function="internal">
        <lane id=":gneJ24_9_0" index="0" speed="13.89" length="19.24" shape="-7.16,90.58 -3.33,94.90 -0.59,99.11 1.05,103.21 1.60,107.20"/>
    </edge>
    <edge id=":gneJ24_10" function="internal">
        <lane id=":gneJ24_10_0" index="0" speed="7.42" length="19.31" shape="-7.16,90.58 -3.31,95.40 -2.79,98.84 -5.59,100.91 -11.73,101.60"/>
    </edge>
    <edge id=":gneJ24_11" function="internal">
        <lane id=":gneJ24_11_0" index="0" speed="5.47" length="9.74" shape="-11.73,98.40 -8.63,98.05 -7.22,97.01 -7.48,95.27 -9.42,92.84"/>
    </edge>
    <edge id=":gneJ24_12" function="internal">
        <lane id=":gneJ24_12_0" index="0" speed="13.89" length="18.93" shape="-11.73,98.40 7.20,98.40"/>
    </edge>
    <edge id=":gneJ24_13" function="internal">
        <lane id=":gneJ24_13_0" index="0" speed="8.71" length="6.41" shape="-11.73,98.40 -7.40,99.16 -5.56,100.00"/>
    </edge>
    <edge id=":gneJ24_14" function="internal">
        <lane id=":gneJ24_14_0" index="0" speed="3.65" length="2.34" shape="-11.73,98.40 -10.53,99.20 -10.13,100.00"/>
    </edge>
    <edge id=":gneJ24_17" function="internal">
        <lane id=":gneJ24_17_0" index="0" speed="8.71" length="10.61" shape="-5.56,100.00 -3.07,101.15 0.27,103.97 1.60,107.20"/>
    </edge>
    <edge id=":gneJ24_18" function="internal">
        <lane id=":gneJ24_18_0" index="0" speed="3.65" length="2.34" shape="-10.13,100.00 -10.53,100.80 -11.73,101.60"/>
    </edge>
    <edge id=":gneJ25_0" function="internal">
        <lane id=":gneJ25_0_0" index="0" speed="3.65" length="4.67" shape="1.60,200.00 0.80,201.20 0.00,201.60 -0.80,201.20 -1.60,200.00"/>
    </edge>
    <edge id=":gneJ27_0" function="internal">
        <lane id=":gneJ27_0_0" index="0" speed="13.89" length="14.40" shape="7.20,1.60 -7.20,1.60"/>
    </edge>
    <edge id=":gneJ27_1" function="internal">
        <lane id=":gneJ27_1_0" index="0" speed="8.00" length="5.93" shape="7.20,1.60 3.35,1.05 1.60,0.00"/>
    </edge>
    <edge id=":gneJ27_2" function="internal">
        <lane id=":gneJ27_2_0" index="0" speed="3.65" length="2.34" shape="7.20,1.60 6.00,0.80 5.60,0.00"/>
    </edge>
    <edge id=":gneJ27_9" function="internal">
        <lane id=":gneJ27_9_0" index="0" speed="8.00" length="8.26" shape="1.60,0.00 0.60,-0.60 -1.05,-3.35 -1.60,-7.20"/>
    </edge>
    <edge id=":gneJ27_10" function="internal">
        <lane id=":gneJ27_10_0" index="0" speed="3.65" length="2.34" shape="5.60,0.00 6.00,-0.80 7.20,-1.60"/>
    </edge>
    <edge id=":gneJ27_3" function="internal">
        <lane id=":gneJ27_3_0" index="0" speed="6.51" length="9.03" shape="1.60,-7.20 1.95,-4.75 3.00,-3.00 4.75,-1.95 7.20,-1.60"/>
    </edge>
    <edge id=":gneJ27_4" function="internal">
        <lane id=":gneJ27_4_0" index="0" speed="8.00" length="14.19" shape="1.60,-7.20 1.05,-3.35 -0.60,-0.60 -3.35,1.05 -7.20,1.60"/>
    </edge>
    <edge id=":gneJ27_5" function="internal">
        <lane id=":gneJ27_5_0" index="0" speed="3.65" length="4.67" shape="1.60,-7.20 0.80,-6.00 0.00,-5.60 -0.80,-6.00 -1.60,-7.20"/>
    </edge>
    <edge id=":gneJ27_6" function="internal">
        <lane id=":gneJ27_6_0" index="0" speed="6.51" length="9.03" shape="-7.20,-1.60 -4.75,-1.95 -3.00,-3.00 -1.95,-4.75 -1.60,-7.20"/>
    </edge>
    <edge id=":gneJ27_7" function="internal">
        <lane id=":gneJ27_7_0" index="0" speed="13.89" length="14.40" shape="-7.20,-1.60 7.20,-1.60"/>
    </edge>
    <edge id=":gneJ27_8" function="internal">
        <lane id=":gneJ27_8_0" index="0" speed="3.65" length="2.34" shape="-7.20,-1.60 -6.00,-0.80 -5.60,0.00"/>
    </edge>
    <edge id=":gneJ27_11" function="internal">
        <lane id=":gneJ27_11_0" index="0" speed="3.65" length="2.34" shape="-5.60,0.00 -6.00,0.80 -7.20,1.60"/>
    </edge>

    <edge id="-gneE41" from="gneJ24" to="gneJ23" priority="-1">
        <lane id="-gneE41_0" index="0" speed="13.89" length="117.97" shape="-9.42,92.84 -92.84,9.42"/>
    </edge>
    <edge id="gneE15" from="gneJ19" to="gneJ20" priority="-1">
        <lane id="gneE15_0" index="0" speed="13.89" length="92.80" shape="-101.60,200.00 -101.60,107.20"/>
    </edge>
    <edge id="gneE16" from="gneJ21" to="gneJ20" priority="-1">
        <lane id="gneE16_0" index="0" speed="13.89" length="92.80" shape="-200.00,98.40 -107.20,98.40"/>
    </edge>
    <edge id="gneE17" from="gneJ22" to="gneJ23" priority="-1">
        <lane id="gneE17_0" index="0" speed="13.89" length="92.80" shape="-200.00,-1.60 -107.20,-1.60"/>
    </edge>
    <edge id="gneE20" from="gneJ20" to="gneJ19" priority="-1">
        <lane id="gneE20_0" index="0" speed="13.89" length="92.80" shape="-98.40,107.20 -98.40,200.00"/>
    </edge>
    <edge id="gneE21" from="gneJ20" to="gneJ21" priority="-1">
        <lane id="gneE21_0" index="0" speed="13.89" length="92.80" shape="-107.20,101.60 -200.00,101.60"/>
    </edge>
    <edge id="gneE22" from="gneJ24" to="gneJ20" priority="-1">
        <lane id="gneE22_0" index="0" speed="13.89" length="81.07" shape="-11.73,101.60 -92.80,101.60"/>
    </edge>
    <edge id="gneE23" from="gneJ20" to="gneJ24" priority="-1">
        <lane id="gneE23_0" index="0" speed="13.89" length="81.07" shape="-92.80,98.40 -11.73,98.40"/>
    </edge>
    <edge id="gneE24" from="gneJ24" to="gneJ25" priority="-1">
        <lane id="gneE24_0" index="0" speed="13.89" length="92.80" shape="1.60,107.20 1.60,200.00"/>
    </edge>
    <edge id="gneE25" from="gneJ25" to="gneJ24" priority="-1">
        <lane id="gneE25_0" index="0" speed="13.89" length="92.80" shape="-1.60,200.00 -1.60,107.20"/>
    </edge>
    <edge id="gneE26" from="gneJ24" to="gneJ26" priority="-1">
        <lane id="gneE26_0" index="0" speed="13.89" length="92.80" shape="7.20,98.40 100.00,98.40"/>
    </edge>
    <edge id="gneE27" from="gneJ26" to="gneJ24" priority="-1">
        <lane id="gneE27_0" index="0" speed="13.89" length="92.80" shape="100.00,101.60 7.20,101.60"/>
    </edge>
    <edge id="gneE30" from="gneJ27" to="gneJ23" priority="-1">
        <lane id="gneE30_0" index="0" speed="13.89" length="81.07" shape="-7.20,1.60 -88.27,1.60"/>
    </edge>
    <edge id="gneE31" from="gneJ23" to="gneJ27" priority="-1">
        <lane id="gneE31_0" index="0" speed="13.89" length="81.07" shape="-88.27,-1.60 -7.20,-1.60"/>
    </edge>
    <edge id="gneE32" from="gneJ23" to="gneJ22" priority="-1">
        <lane id="gneE32_0" index="0" speed="13.89" length="92.80" shape="-107.20,1.60 -200.00,1.60"/>
    </edge>
    <edge id="gneE33" from="gneJ23" to="gneJ28" priority="-1">
        <lane id="gneE33_0" index="0" speed="13.89" length="92.80" shape="-101.60,-7.20 -101.60,-100.00"/>
    </edge>
    <edge id="gneE34" from="gneJ28" to="gneJ23" priority="-1">
        <lane id="gneE34_0" index="0" speed="13.89" length="92.80" shape="-98.40,-100.00 -98.40,-7.20"/>
    </edge>
    <edge id="gneE35" from="gneJ27" to="gneJ29" priority="-1">
        <lane id="gneE35_0" index="0" speed="13.89" length="92.80" shape="-1.60,-7.20 -1.60,-100.00"/>
    </edge>
    <edge id="gneE36" from="gneJ29" to="gneJ27" priority="-1">
        <lane id="gneE36_0" index="0" speed="13.89" length="92.80" shape="1.60,-100.00 1.60,-7.20"/>
    </edge>
    <edge id="gneE37" from="gneJ27" to="gneJ30" priority="-1">
        <lane id="gneE37_0" index="0" speed="13.89" length="92.80" shape="7.20,-1.60 100.00,-1.60"/>
    </edge>
    <edge id="gneE38" from="gneJ30" to="gneJ27" priority="-1">
        <lane id="gneE38_0" index="0" speed="13.89" length="92.80" shape="100.00,1.60 7.20,1.60"/>
    </edge>
    <edge id="gneE41" from="gneJ23" to="gneJ24" priority="-1">
        <lane id="gneE41_0" index="0" speed="13.89" length="117.97" shape="-90.58,7.16 -7.16,90.58"/>
    </edge>

    <junction id="gneJ19" type="dead_end" x="-100.00" y="200.00" incLanes="gneE20_0" intLanes="" shape="-100.00,200.00 -96.80,200.00 -100.00,200.00"/>
    <junction id="gneJ20" type="priority" x="-100.00" y="100.00" incLanes="gneE15_0 gneE22_0 gneE16_0" intLanes=":gneJ20_0_0 :gneJ20_1_0 :gneJ20_2_0 :gneJ20_3_0 :gneJ20_4_0 :gneJ20_9_0 :gneJ20_6_0 :gneJ20_10_0 :gneJ20_11_0" shape="-103.20,107.20 -96.80,107.20 -96.36,104.98 -95.80,104.20 -95.02,103.64 -94.02,103.31 -92.80,103.20 -92.80,96.80 -107.20,96.80 -107.20,103.20 -104.98,103.64 -104.20,104.20 -103.64,104.98 -103.31,105.98">
        <request index="0" response="000010000" foes="100010000" cont="0"/>
        <request index="1" response="011010000" foes="011110000" cont="0"/>
        <request index="2" response="010001000" foes="010001000" cont="0"/>
        <request index="3" response="000000000" foes="010000100" cont="0"/>
        <request index="4" response="000000000" foes="110000011" cont="0"/>
        <request index="5" response="001000010" foes="001000010" cont="1"/>
        <request index="6" response="000000000" foes="000100010" cont="0"/>
        <request index="7" response="000011000" foes="000011110" cont="1"/>
        <request index="8" response="000010001" foes="000010001" cont="1"/>
    </junction>
    <junction id="gneJ21" type="dead_end" x="-200.00" y="100.00" incLanes="gneE21_0" intLanes="" shape="-200.00,100.00 -200.00,103.20 -200.00,100.00"/>
    <junction id="gneJ22" type="dead_end" x="-200.00" y="0.00" incLanes="gneE32_0" intLanes="" shape="-200.00,0.00 -200.00,3.20 -200.00,0.00"/>
    <junction id="gneJ23" type="priority" x="-100.00" y="0.00" incLanes="-gneE41_0 gneE30_0 gneE34_0 gneE17_0" intLanes=":gneJ23_0_0 :gneJ23_1_0 :gneJ23_2_0 :gneJ23_3_0 :gneJ23_4_0 :gneJ23_15_0 :gneJ23_16_0 :gneJ23_7_0 :gneJ23_8_0 :gneJ23_9_0 :gneJ23_10_0 :gneJ23_11_0 :gneJ23_12_0 :gneJ23_17_0 :gneJ23_18_0" shape="-93.97,10.55 -89.45,6.03 -90.57,4.46 -90.57,3.91 -90.18,3.51 -89.42,3.28 -88.27,3.20 -88.27,-3.20 -90.88,-3.31 -93.01,-3.64 -94.67,-4.20 -95.85,-4.98 -96.56,-5.98 -96.80,-7.20 -103.20,-7.20 -103.64,-4.98 -104.20,-4.20 -104.98,-3.64 -105.98,-3.31 -107.20,-3.20 -107.20,3.20 -105.20,3.40 -103.12,4.02 -100.96,5.04 -98.71,6.47 -96.38,8.31">
        <request index="0"  response="000000000010000" foes="100001000010000" cont="0"/>
        <request index="1"  response="011100000110000" foes="011111000110000" cont="0"/>
        <request index="2"  response="011000110110000" foes="011000111110000" cont="0"/>
        <request index="3"  response="000000000000000" foes="010000100000000" cont="0"/>
        <request index="4"  response="000000000000000" foes="110001100000111" cont="0"/>
        <request index="5"  response="001100000000000" foes="001111100000110" cont="1"/>
        <request index="6"  response="001000010000100" foes="001000010000100" cont="1"/>
        <request index="7"  response="001000000000000" foes="001000001000100" cont="0"/>
        <request index="8"  response="011000000111000" foes="011000000111100" cont="0"/>
        <request index="9"  response="011000000110011" foes="111000000110011" cont="0"/>
        <request index="10" response="000100000100010" foes="000100000100010" cont="0"/>
        <request index="11" response="000000000000000" foes="000010000100010" cont="0"/>
        <request index="12" response="000000000000000" foes="000001111100110" cont="0"/>
        <request index="13" response="000000000011000" foes="000001100011110" cont="1"/>
        <request index="14" response="000001000010001" foes="000001000010001" cont="1"/>
    </junction>
    <junction id="gneJ24" type="priority" x="0.00" y="100.00" incLanes="gneE25_0 gneE27_0 gneE41_0 gneE23_0" intLanes=":gneJ24_0_0 :gneJ24_1_0 :gneJ24_2_0 :gneJ24_3_0 :gneJ24_4_0 :gneJ24_5_0 :gneJ24_15_0 :gneJ24_16_0 :gneJ24_8_0 :gneJ24_9_0 :gneJ24_10_0 :gneJ24_11_0 :gneJ24_12_0 :gneJ24_17_0 :gneJ24_18_0" shape="-3.20,107.20 3.20,107.20 3.64,104.98 4.20,104.20 4.98,103.64 5.98,103.31 7.20,103.20 7.20,96.80 5.20,96.60 3.12,95.98 0.96,94.96 -1.29,93.53 -3.62,91.69 -6.03,89.45 -10.55,93.97 -9.43,95.54 -9.43,96.09 -9.82,96.49 -10.58,96.72 -11.73,96.80 -11.73,103.20 -9.12,103.31 -6.99,103.64 -5.33,104.20 -4.15,104.98 -3.44,105.98">
        <request index="0"  response="000000000100000" foes="100010000100000" cont="0"/>
        <request index="1"  response="011100001100000" foes="011110001100000" cont="0"/>
        <request index="2"  response="011001101100000" foes="011001111100000" cont="0"/>
        <request index="3"  response="010001000010000" foes="010001000010000" cont="0"/>
        <request index="4"  response="000000000000000" foes="010001000001000" cont="0"/>
        <request index="5"  response="000000000000000" foes="110011000000111" cont="0"/>
        <request index="6"  response="001100000000000" foes="001111000000110" cont="1"/>
        <request index="7"  response="001000100000100" foes="001000100000100" cont="1"/>
        <request index="8"  response="001000000000000" foes="001000010000100" cont="0"/>
        <request index="9"  response="011000001110000" foes="011000001111100" cont="0"/>
        <request index="10" response="011000001100011" foes="111000001100011" cont="0"/>
        <request index="11" response="000000000000000" foes="000000001000010" cont="0"/>
        <request index="12" response="000000000000000" foes="000011111000110" cont="0"/>
        <request index="13" response="000000000110000" foes="000011000111110" cont="1"/>
        <request index="14" response="000010000100001" foes="000010000100001" cont="1"/>
    </junction>
    <junction id="gneJ25" type="priority" x="0.00" y="200.00" incLanes="gneE24_0" intLanes=":gneJ25_0_0" shape="0.00,200.00 3.20,200.00 0.00,200.00">
        <request index="0" response="0" foes="0" cont="0"/>
    </junction>
    <junction id="gneJ26" type="dead_end" x="100.00" y="100.00" incLanes="gneE26_0" intLanes="" shape="100.00,100.00 100.00,96.80 100.00,100.00"/>
    <junction id="gneJ27" type="priority" x="0.00" y="0.00" incLanes="gneE38_0 gneE36_0 gneE31_0" intLanes=":gneJ27_0_0 :gneJ27_9_0 :gneJ27_10_0 :gneJ27_3_0 :gneJ27_4_0 :gneJ27_5_0 :gneJ27_6_0 :gneJ27_7_0 :gneJ27_11_0" shape="7.20,3.20 7.20,-3.20 4.98,-3.64 4.20,-4.20 3.64,-4.98 3.31,-5.98 3.20,-7.20 -3.20,-7.20 -3.64,-4.98 -4.20,-4.20 -4.98,-3.64 -5.98,-3.31 -7.20,-3.20 -7.20,3.20">
        <request index="0" response="000000000" foes="100010000" cont="0"/>
        <request index="1" response="011000000" foes="011110000" cont="1"/>
        <request index="2" response="010001000" foes="010001000" cont="1"/>
        <request index="3" response="010000000" foes="010000100" cont="0"/>
        <request index="4" response="010000011" foes="110000011" cont="0"/>
        <request index="5" response="001000010" foes="001000010" cont="0"/>
        <request index="6" response="000000000" foes="000100010" cont="0"/>
        <request index="7" response="000000000" foes="000011110" cont="0"/>
        <request index="8" response="000010001" foes="000010001" cont="1"/>
    </junction>
    <junction id="gneJ28" type="dead_end" x="-100.00" y="-100.00" incLanes="gneE33_0" intLanes="" shape="-100.00,-100.00 -103.20,-100.00 -100.00,-100.00"/>
    <junction id="gneJ29" type="dead_end" x="0.00" y="-100.00" incLanes="gneE35_0" intLanes="" shape="0.00,-100.00 -3.20,-100.00 0.00,-100.00"/>
    <junction id="gneJ30" type="dead_end" x="100.00" y="0.00" incLanes="gneE37_0" intLanes="" shape="100.00,0.00 100.00,-3.20 100.00,0.00"/>

    <junction id=":gneJ20_9_0" type="internal" x="-94.40" y="100.00" incLanes=":gneJ20_5_0 gneE15_0 gneE16_0" intLanes=":gneJ20_1_0 :gneJ20_6_0"/>
    <junction id=":gneJ20_10_0" type="internal" x="-101.60" y="100.00" incLanes=":gneJ20_7_0 gneE22_0" intLanes=":gneJ20_1_0 :gneJ20_2_0 :gneJ20_3_0 :gneJ20_4_0"/>
    <junction id=":gneJ20_11_0" type="internal" x="-105.60" y="100.00" incLanes=":gneJ20_8_0 gneE15_0 gneE22_0" intLanes=":gneJ20_0_0 :gneJ20_4_0"/>
    <junction id=":gneJ23_15_0" type="internal" x="-94.44" y="-0.00" incLanes=":gneJ23_5_0 gneE17_0" intLanes=":gneJ23_1_0 :gneJ23_2_0 :gneJ23_8_0 :gneJ23_9_0 :gneJ23_10_0 :gneJ23_11_0 :gneJ23_12_0"/>
    <junction id=":gneJ23_16_0" type="internal" x="-89.87" y="0.00" incLanes=":gneJ23_6_0 -gneE41_0 gneE17_0 gneE34_0" intLanes=":gneJ23_2_0 :gneJ23_7_0 :gneJ23_12_0"/>
    <junction id=":gneJ23_17_0" type="internal" x="-101.64" y="0.00" incLanes=":gneJ23_13_0 gneE30_0" intLanes=":gneJ23_1_0 :gneJ23_2_0 :gneJ23_3_0 :gneJ23_4_0 :gneJ23_8_0 :gneJ23_9_0"/>
    <junction id=":gneJ23_18_0" type="internal" x="-105.60" y="0.00" incLanes=":gneJ23_14_0 -gneE41_0 gneE30_0 gneE34_0" intLanes=":gneJ23_0_0 :gneJ23_4_0 :gneJ23_9_0"/>
    <junction id=":gneJ24_15_0" type="internal" x="1.64" y="100.00" incLanes=":gneJ24_6_0 gneE23_0" intLanes=":gneJ24_1_0 :gneJ24_2_0 :gneJ24_9_0 :gneJ24_10_0 :gneJ24_11_0 :gneJ24_12_0"/>
    <junction id=":gneJ24_16_0" type="internal" x="5.60" y="100.00" incLanes=":gneJ24_7_0 gneE23_0 gneE25_0 gneE41_0" intLanes=":gneJ24_2_0 :gneJ24_8_0 :gneJ24_12_0"/>
    <junction id=":gneJ24_17_0" type="internal" x="-5.56" y="100.00" incLanes=":gneJ24_13_0 gneE27_0" intLanes=":gneJ24_1_0 :gneJ24_2_0 :gneJ24_3_0 :gneJ24_4_0 :gneJ24_5_0 :gneJ24_9_0 :gneJ24_10_0"/>
    <junction id=":gneJ24_18_0" type="internal" x="-10.13" y="100.00" incLanes=":gneJ24_14_0 gneE25_0 gneE27_0 gneE41_0" intLanes=":gneJ24_0_0 :gneJ24_5_0 :gneJ24_10_0"/>
    <junction id=":gneJ27_9_0" type="internal" x="1.60" y="0.00" incLanes=":gneJ27_1_0 gneE31_0" intLanes=":gneJ27_4_0 :gneJ27_5_0 :gneJ27_6_0 :gneJ27_7_0"/>
    <junction id=":gneJ27_10_0" type="internal" x="5.60" y="0.00" incLanes=":gneJ27_2_0 gneE31_0 gneE36_0" intLanes=":gneJ27_3_0 :gneJ27_7_0"/>
    <junction id=":gneJ27_11_0" type="internal" x="-5.60" y="0.00" incLanes=":gneJ27_8_0 gneE36_0 gneE38_0" intLanes=":gneJ27_0_0 :gneJ27_4_0"/>

    <connection from="-gneE41" to="gneE32" fromLane="0" toLane="0" via=":gneJ23_0_0" dir="r" state="m"/>
    <connection from="-gneE41" to="gneE33" fromLane="0" toLane="0" via=":gneJ23_1_0" dir="L" state="m"/>
    <connection from="-gneE41" to="gneE31" fromLane="0" toLane="0" via=":gneJ23_2_0" dir="l" state="m"/>
    <connection from="gneE15" to="gneE21" fromLane="0" toLane="0" via=":gneJ20_0_0" dir="r" state="m"/>
    <connection from="gneE15" to="gneE23" fromLane="0" toLane="0" via=":gneJ20_1_0" dir="l" state="m"/>
    <connection from="gneE15" to="gneE20" fromLane="0" toLane="0" via=":gneJ20_2_0" dir="t" state="m"/>
    <connection from="gneE16" to="gneE23" fromLane="0" toLane="0" via=":gneJ20_6_0" dir="s" state="M"/>
    <connection from="gneE16" to="gneE20" fromLane="0" toLane="0" via=":gneJ20_7_0" dir="l" state="m"/>
    <connection from="gneE16" to="gneE21" fromLane="0" toLane="0" via=":gneJ20_8_0" dir="t" state="m"/>
    <connection from="gneE17" to="gneE33" fromLane="0" toLane="0" via=":gneJ23_11_0" dir="r" state="M"/>
    <connection from="gneE17" to="gneE31" fromLane="0" toLane="0" via=":gneJ23_12_0" dir="s" state="M"/>
    <connection from="gneE17" to="gneE41" fromLane="0" toLane="0" via=":gneJ23_13_0" dir="l" state="m"/>
    <connection from="gneE17" to="gneE32" fromLane="0" toLane="0" via=":gneJ23_14_0" dir="t" state="m"/>
    <connection from="gneE22" to="gneE20" fromLane="0" toLane="0" via=":gneJ20_3_0" dir="r" state="M"/>
    <connection from="gneE22" to="gneE21" fromLane="0" toLane="0" via=":gneJ20_4_0" dir="s" state="M"/>
    <connection from="gneE22" to="gneE23" fromLane="0" toLane="0" via=":gneJ20_5_0" dir="t" state="m"/>
    <connection from="gneE23" to="-gneE41" fromLane="0" toLane="0" via=":gneJ24_11_0" dir="r" state="M"/>
    <connection from="gneE23" to="gneE26" fromLane="0" toLane="0" via=":gneJ24_12_0" dir="s" state="M"/>
    <connection from="gneE23" to="gneE24" fromLane="0" toLane="0" via=":gneJ24_13_0" dir="l" state="m"/>
    <connection from="gneE23" to="gneE22" fromLane="0" toLane="0" via=":gneJ24_14_0" dir="t" state="m"/>
    <connection from="gneE24" to="gneE25" fromLane="0" toLane="0" via=":gneJ25_0_0" dir="t" state="M"/>
    <connection from="gneE25" to="gneE22" fromLane="0" toLane="0" via=":gneJ24_0_0" dir="r" state="m"/>
    <connection from="gneE25" to="-gneE41" fromLane="0" toLane="0" via=":gneJ24_1_0" dir="R" state="m"/>
    <connection from="gneE25" to="gneE26" fromLane="0" toLane="0" via=":gneJ24_2_0" dir="l" state="m"/>
    <connection from="gneE25" to="gneE24" fromLane="0" toLane="0" via=":gneJ24_3_0" dir="t" state="m"/>
    <connection from="gneE27" to="gneE24" fromLane="0" toLane="0" via=":gneJ24_4_0" dir="r" state="M"/>
    <connection from="gneE27" to="gneE22" fromLane="0" toLane="0" via=":gneJ24_5_0" dir="s" state="M"/>
    <connection from="gneE27" to="-gneE41" fromLane="0" toLane="0" via=":gneJ24_6_0" dir="l" state="m"/>