<?xml version="1.0" encoding="UTF-8"?>

<!-- generated on 2021-06-12 20:42:59 by Eclipse SUMO netedit Version 1.9.2
<configuration xmlns:xsi="http://www.w3.org/2001/XMLSchema-instance" xsi:noNamespaceSchemaLocation="http://sumo.dlr.de/xsd/netconvertConfiguration.xsd">

    <input>
        <sumo-net-file value="/home/kowareta/projects/fazel/Adaptive_Routing_W_Q_Learning/environments/sumo/networks/3x3/network.net.xml"/>
    </input>

    <output>
        <output-file value="/home/kowareta/projects/fazel/Adaptive_Routing_W_Q_Learning/environments/sumo/networks/3x3/network.net.xml"/>
    </output>

    <processing>
        <geometry.min-radius.fix.railways value="false"/>
        <geometry.max-grade.fix value="false"/>
        <offset.disable-normalization value="true"/>
        <lefthand value="false"/>
    </processing>

    <junctions>
        <no-turnarounds value="true"/>
        <junctions.corner-detail value="5"/>
        <junctions.limit-turn-speed value="5.5"/>
        <rectangular-lane-cut value="false"/>
    </junctions>

    <pedestrian>
        <walkingareas value="false"/>
    </pedestrian>

    <netedit>
        <route-files value="/home/kowareta/projects/fazel/Adaptive_Routing_W_Q_Learning/environments/sumo/networks/3x3/network.rou.xml"/>
    </netedit>

    <report>
        <aggregate-warnings value="5"/>
    </report>

</configuration>
-->

<routes xmlns:xsi="http://www.w3.org/2001/XMLSchema-instance" xsi:noNamespaceSchemaLocation="http://sumo.dlr.de/xsd/routes_file.xsd">
    <!-- <trip id="vehicle_0" depart="0.00" from="gneE17" to="gneE26"/> -->
    
</routes>
