<?xml version="1.0" encoding="UTF-8"?>

<!-- generated on 2021-06-29 19:38:43 by Eclipse SUMO netedit Version 1.9.2
<configuration xmlns:xsi="http://www.w3.org/2001/XMLSchema-instance" xsi:noNamespaceSchemaLocation="http://sumo.dlr.de/xsd/netconvertConfiguration.xsd">

    <input>
        <sumo-net-file value="/home/fazel/Adaptive_Routing_W_Q_Learning_main/environments/sumo/networks/3x3/test1.net.xml"/>
    </input>

    <output>
        <output-file value="/home/fazel/Adaptive_Routing_W_Q_Learning_main/environments/sumo/networks/3x3/test1.net.xml"/>
    </output>

    <processing>
        <geometry.min-radius.fix.railways value="false"/>
        <geometry.max-grade.fix value="false"/>
        <offset.disable-normalization value="true"/>
        <lefthand value="false"/>
    </processing>

    <junctions>
        <no-turnarounds value="true"/>
        <junctions.corner-detail value="5"/>
        <junctions.limit-turn-speed value="5.5"/>
        <rectangular-lane-cut value="false"/>
    </junctions>

    <pedestrian>
        <walkingareas value="false"/>
    </pedestrian>

    <report>
        <aggregate-warnings value="5"/>
    </report>

</configuration>
-->

<net version="1.9" junctionCornerDetail="5" limitTurnSpeed="5.50" xmlns:xsi="http://www.w3.org/2001/XMLSchema-instance" xsi:noNamespaceSchemaLocation="http://sumo.dlr.de/xsd/net_file.xsd">

    <location netOffset="0.00,0.00" convBoundary="0.00,-300.00,100.00,300.00" origBoundary="-10000000000.00,-10000000000.00,10000000000.00,10000000000.00" projParameter="!"/>

    <edge id=":gneJ4_0" function="internal">
        <lane id=":gneJ4_0_0" index="0" speed="9.45" length="11.20" shape="-1.60,4.00 -1.60,-7.20"/>
    </edge>
    <edge id=":gneJ4_1" function="internal">
        <lane id=":gneJ4_1_0" index="0" speed="6.51" length="9.03" shape="-1.60,4.00 -1.25,1.55 -0.20,-0.20 1.55,-1.25 4.00,-1.60"/>
    </edge>
    <edge id=":gneJ5_0" function="internal">
        <lane id=":gneJ5_0_0" index="0" speed="3.90" length="2.58" shape="96.80,-1.60 97.50,-1.70 98.00,-2.00 98.30,-2.50 98.40,-3.20"/>
    </edge>
    <edge id=":gneJ6_0" function="internal">
        <lane id=":gneJ6_0_0" index="0" speed="3.90" length="2.58" shape="98.40,-196.80 98.30,-197.50 98.00,-198.00 97.50,-198.30 96.80,-198.40"/>
    </edge>
    <edge id=":gneJ7_0" function="internal">
        <lane id=":gneJ7_0_0" index="0" speed="13.89" length="11.20" shape="-1.60,-192.80 -1.60,-204.00"/>
    </edge>
    <edge id=":gneJ7_1" function="internal">
        <lane id=":gneJ7_1_0" index="0" speed="6.51" length="4.28" shape="4.00,-198.40 1.55,-198.75 0.00,-199.68"/>
    </edge>
    <edge id=":gneJ7_2" function="internal">
        <lane id=":gneJ7_2_0" index="0" speed="6.51" length="4.75" shape="0.00,-199.68 -0.20,-199.80 -1.25,-201.55 -1.60,-204.00"/>
    </edge>

    <edge id="gneE1" from="gneJ3" to="gneJ4" priority="-1">
        <lane id="gneE1_0" index="0" speed="5.00" length="296.00" shape="-1.60,300.00 -1.60,4.00"/>
    </edge>
    <edge id="gneE2" from="gneJ4" to="gneJ5" priority="-1">
        <lane id="gneE2_0" index="0" speed="13.89" length="92.80" shape="4.00,-1.60 96.80,-1.60"/>
    </edge>
    <edge id="gneE3" from="gneJ5" to="gneJ6" priority="-1">
        <lane id="gneE3_0" index="0" speed="13.89" length="193.60" shape="98.40,-3.20 98.40,-196.80"/>
    </edge>
    <edge id="gneE4" from="gneJ6" to="gneJ7" priority="-1">
        <lane id="gneE4_0" index="0" speed="13.89" length="92.80" shape="96.80,-198.40 4.00,-198.40"/>
    </edge>
    <edge id="gneE5" from="gneJ7" to="gneJ9" priority="-1">
        <lane id="gneE5_0" index="0" speed="13.89" length="96.00" shape="-1.60,-204.00 -1.60,-300.00"/>
    </edge>
    <edge id="gneE6" from="gneJ4" to="gneJ7" priority="-1">
        <lane id="gneE6_0" index="0" speed="13.89" length="185.60" shape="-1.60,-7.20 -1.60,-192.80"/>
    </edge>

    <junction id="gneJ3" type="dead_end" x="0.00" y="300.00" incLanes="" intLanes="" shape="0.00,300.00 -3.20,300.00"/>
    <junction id="gneJ4" type="priority" x="0.00" y="0.00" incLanes="gneE1_0" intLanes=":gneJ4_0_0 :gneJ4_1_0" shape="-3.20,4.00 0.00,4.00 0.44,1.78 1.00,1.00 1.78,0.44 2.78,0.11 4.00,0.00 4.00,-3.20 1.78,-3.64 1.00,-4.20 0.44,-4.98 0.11,-5.98 0.00,-7.20 -3.20,-7.20">
        <request index="0" response="00" foes="00" cont="0"/>
        <request index="1" response="00" foes="00" cont="0"/>
    </junction>
    <junction id="gneJ5" type="priority" x="100.00" y="0.00" incLanes="gneE2_0" intLanes=":gneJ5_0_0" shape="100.00,-3.20 96.80,-3.20 96.80,0.00 98.58,-0.36 99.20,-0.80 99.64,-1.42 99.91,-2.22">
        <request index="0" response="0" foes="0" cont="0"/>
    </junction>
    <junction id="gneJ6" type="priority" x="100.00" y="-200.00" incLanes="gneE3_0" intLanes=":gneJ6_0_0" shape="96.80,-196.80 100.00,-196.80 99.64,-198.58 99.20,-199.20 98.58,-199.64 97.78,-199.91 96.80,-200.00">
        <request index="0" response="0" foes="0" cont="0"/>
    </junction>
    <junction id="gneJ7" type="priority" x="0.00" y="-200.00" incLanes="gneE6_0 gneE4_0" intLanes=":gneJ7_0_0 :gneJ7_2_0" shape="-3.20,-192.80 0.00,-192.80 0.44,-195.02 1.00,-195.80 1.78,-196.36 2.78,-196.69 4.00,-196.80 4.00,-200.00 1.78,-200.44 1.00,-201.00 0.44,-201.78 0.11,-202.78 0.00,-204.00 -3.20,-204.00">
        <request index="0" response="00" foes="10" cont="0"/>
        <request index="1" response="01" foes="01" cont="1"/>
    </junction>
    <junction id="gneJ9" type="dead_end" x="0.00" y="-300.00" incLanes="gneE5_0" intLanes="" shape="-3.20,-300.00 0.00,-300.00"/>

    <junction id=":gneJ7_2_0" type="internal" x="0.00" y="-199.68" incLanes=":gneJ7_1_0 gneE6_0" intLanes=":gneJ7_0_0"/>

    <connection from="gneE1" to="gneE6" fromLane="0" toLane="0" via=":gneJ4_0_0" dir="s" state="M"/>
    <connection from="gneE1" to="gneE2" fromLane="0" toLane="0" via=":gneJ4_1_0" dir="l" state="M"/>
    <connection from="gneE2" to="gneE3" fromLane="0" toLane="0" via=":gneJ5_0_0" dir="r" state="M"/>
    <connection from="gneE3" to="gneE4" fromLane="0" toLane="0" via=":gneJ6_0_0" dir="r" state="M"/>
    <connection from="gneE4" to="gneE5" fromLane="0" toLane="0" via=":gneJ7_1_0" dir="l" state="m"/>
    <connection from="gneE6" to="gneE5" fromLane="0" toLane="0" via=":gneJ7_0_0" dir="s" state="M"/>

    <connection from=":gneJ4_0" to="gneE6" fromLane="0" toLane="0" dir="s" state="M"/>
    <connection from=":gneJ4_1" to="gneE2" fromLane="0" toLane="0" dir="l" state="M"/>
    <connection from=":gneJ5_0" to="gneE3" fromLane="0" toLane="0" dir="r" state="M"/>
    <connection from=":gneJ6_0" to="gneE4" fromLane="0" toLane="0" dir="r" state="M"/>
    <connection from=":gneJ7_0" to="gneE5" fromLane="0" toLane="0" dir="s" state="M"/>
    <connection from=":gneJ7_1" to="gneE5" fromLane="0" toLane="0" via=":gneJ7_2_0" dir="l" state="m"/>
    <connection from=":gneJ7_2" to="gneE5" fromLane="0" toLane="0" dir="l" state="M"/>

</net>
